xflr5 v6.61

 Calculated polar for: peg24_70_revT

 1 1 Reynolds number fixed          Mach number fixed         

 xtrf =   1.000 (top)        1.000 (bottom)
 Mach =   0.000     Re =     0.235 e 6     Ncrit =   9.000

  alpha     CL        CD       CDp       Cm    Top Xtr Bot Xtr   Cpmin    Chinge    XCp    
 ------- -------- --------- --------- -------- ------- ------- -------- --------- ---------
   0.000   0.5642   0.01284   0.00733  -0.1341  0.7690  0.7483  -0.7983   0.0000   0.0000   0.0000   0.4867
   0.500   0.6162   0.01254   0.00709  -0.1322  0.7595  0.8170  -0.8453   0.0000   0.0000   0.0000   0.4627
   1.000   0.6591   0.01242   0.00711  -0.1286  0.7483  0.8862  -0.8914   0.0000   0.0000   0.0000   0.4427
   1.500   0.7176   0.01201   0.00672  -0.1284  0.7363  1.0000  -0.9512   0.0000   0.0000   0.0000   0.4259
   2.000   0.7798   0.01199   0.00655  -0.1296  0.7249  1.0000  -1.0178   0.0000   0.0000   0.0000   0.4125
   2.500   0.8379   0.01194   0.00643  -0.1300  0.7101  1.0000  -1.0845   0.0000   0.0000   0.0000   0.4009
   3.000   0.8962   0.01191   0.00632  -0.1302  0.6957  1.0000  -1.1598   0.0000   0.0000   0.0000   0.3904
   3.500   0.9537   0.01182   0.00615  -0.1302  0.6791  1.0000  -1.2396   0.0000   0.0000   0.0000   0.3811
   4.000   1.0084   0.01189   0.00623  -0.1299  0.6599  1.0000  -1.3300   0.0000   0.0000   0.0000   0.3727
   4.500   1.0630   0.01193   0.00623  -0.1294  0.6381  1.0000  -1.4276   0.0000   0.0000   0.0000   0.3650
   5.000   1.1162   0.01205   0.00631  -0.1287  0.6123  1.0000  -1.5411   0.0000   0.0000   0.0000   0.3579
   5.500   1.1674   0.01230   0.00649  -0.1276  0.5814  1.0000  -1.6640   0.0000   0.0000   0.0000   0.3513
   6.000   1.2163   0.01275   0.00678  -0.1262  0.5459  1.0000  -1.8030   0.0000   0.0000   0.0000   0.3451
   6.500   1.2617   0.01337   0.00733  -0.1244  0.5064  1.0000  -1.9532   0.0000   0.0000   0.0000   0.3392
   7.000   1.3034   0.01425   0.00802  -0.1220  0.4643  1.0000  -2.1154   0.0000   0.0000   0.0000   0.3336
   7.500   1.3424   0.01523   0.00889  -0.1194  0.4225  1.0000  -2.3012   0.0000   0.0000   0.0000   0.3282
   8.000   1.3768   0.01641   0.00992  -0.1161  0.3824  1.0000  -2.4987   0.0000   0.0000   0.0000   0.3228
   8.500   1.4059   0.01769   0.01112  -0.1121  0.3436  1.0000  -2.7592   0.0000   0.0000   0.0000   0.3175
   9.000   1.4286   0.01929   0.01256  -0.1073  0.3087  1.0000  -3.0114   0.0000   0.0000   0.0000   0.3121
   9.500   1.4521   0.02096   0.01421  -0.1032  0.2754  1.0000  -3.2781   0.0000   0.0000   0.0000   0.3072
  10.000   1.4712   0.02304   0.01625  -0.0989  0.2433  1.0000  -3.5356   0.0000   0.0000   0.0000   0.3026


