xflr5 v6.61

 Calculated polar for: peg24_55_revT

 1 1 Reynolds number fixed          Mach number fixed         

 xtrf =   1.000 (top)        1.000 (bottom)
 Mach =   0.000     Re =     0.445 e 6     Ncrit =   9.000

  alpha     CL        CD       CDp       Cm    Top Xtr Bot Xtr   Cpmin    Chinge    XCp    
 ------- -------- --------- --------- -------- ------- ------- -------- --------- ---------
   0.000   0.5158   0.00801   0.00305  -0.1181  0.7329  0.7090  -0.7637   0.0000   0.0000   0.0000   0.4777
   0.500   0.5705   0.00797   0.00313  -0.1175  0.7214  0.7676  -0.8127   0.0000   0.0000   0.0000   0.4540
   1.000   0.6242   0.00787   0.00311  -0.1166  0.7087  0.8162  -0.8670   0.0000   0.0000   0.0000   0.4342
   1.500   0.6761   0.00782   0.00315  -0.1153  0.6952  0.8624  -0.9244   0.0000   0.0000   0.0000   0.4173
   2.000   0.7246   0.00769   0.00308  -0.1131  0.6797  0.9179  -0.9811   0.0000   0.0000   0.0000   0.4024
   2.500   0.7859   0.00762   0.00304  -0.1140  0.6624  1.0000  -1.0536   0.0000   0.0000   0.0000   0.3908
   3.000   0.8433   0.00778   0.00310  -0.1144  0.6435  1.0000  -1.1292   0.0000   0.0000   0.0000   0.3809
   3.500   0.8991   0.00797   0.00319  -0.1144  0.6198  1.0000  -1.2140   0.0000   0.0000   0.0000   0.3719
   4.000   0.9537   0.00823   0.00336  -0.1142  0.5923  1.0000  -1.3048   0.0000   0.0000   0.0000   0.3638
   4.500   1.0068   0.00857   0.00360  -0.1137  0.5592  1.0000  -1.4132   0.0000   0.0000   0.0000   0.3565
   5.000   1.0578   0.00907   0.00393  -0.1129  0.5219  1.0000  -1.5324   0.0000   0.0000   0.0000   0.3497
   5.500   1.1080   0.00963   0.00436  -0.1120  0.4821  1.0000  -1.6682   0.0000   0.0000   0.0000   0.3435
   6.000   1.1554   0.01036   0.00490  -0.1107  0.4399  1.0000  -1.8221   0.0000   0.0000   0.0000   0.3376
   6.500   1.2030   0.01107   0.00549  -0.1096  0.3990  1.0000  -2.0061   0.0000   0.0000   0.0000   0.3322
   7.000   1.2476   0.01196   0.00621  -0.1079  0.3574  1.0000  -2.2453   0.0000   0.0000   0.0000   0.3269
   7.500   1.2906   0.01290   0.00700  -0.1062  0.3168  1.0000  -2.5617   0.0000   0.0000   0.0000   0.3220
   8.000   1.3316   0.01391   0.00787  -0.1041  0.2785  1.0000  -2.8844   0.0000   0.0000   0.0000   0.3172
   8.500   1.3686   0.01509   0.00890  -0.1015  0.2403  1.0000  -3.2058   0.0000   0.0000   0.0000   0.3125
   9.000   1.4013   0.01631   0.01001  -0.0982  0.2066  1.0000  -3.5226   0.0000   0.0000   0.0000   0.3076
   9.500   1.4295   0.01781   0.01137  -0.0945  0.1726  1.0000  -3.8316   0.0000   0.0000   0.0000   0.3029
  10.000   1.4542   0.01958   0.01302  -0.0907  0.1409  1.0000  -4.1348   0.0000   0.0000   0.0000   0.2984


