xflr5 v6.61

 Calculated polar for: peg24_45_revT

 1 1 Reynolds number fixed          Mach number fixed         

 xtrf =   1.000 (top)        1.000 (bottom)
 Mach =   0.000     Re =     0.360 e 6     Ncrit =   9.000

  alpha     CL        CD       CDp       Cm    Top Xtr Bot Xtr   Cpmin    Chinge    XCp    
 ------- -------- --------- --------- -------- ------- ------- -------- --------- ---------
   0.000   0.4636   0.00864   0.00367  -0.1058  0.7465  0.7726  -0.7235   0.0000   0.0000   0.0000   0.4771
   0.500   0.5168   0.00854   0.00360  -0.1046  0.7340  0.8209  -0.7734   0.0000   0.0000   0.0000   0.4506
   1.000   0.5671   0.00848   0.00362  -0.1028  0.7206  0.8667  -0.8249   0.0000   0.0000   0.0000   0.4289
   1.500   0.6152   0.00832   0.00350  -0.1004  0.7060  0.9172  -0.8797   0.0000   0.0000   0.0000   0.4102
   2.000   0.6802   0.00817   0.00338  -0.1019  0.6890  1.0000  -0.9478   0.0000   0.0000   0.0000   0.3963
   2.500   0.7384   0.00828   0.00336  -0.1025  0.6712  1.0000  -1.0190   0.0000   0.0000   0.0000   0.3848
   3.000   0.7951   0.00841   0.00339  -0.1027  0.6504  1.0000  -1.0943   0.0000   0.0000   0.0000   0.3746
   3.500   0.8504   0.00858   0.00349  -0.1026  0.6257  1.0000  -1.1810   0.0000   0.0000   0.0000   0.3655
   4.000   0.9046   0.00884   0.00364  -0.1023  0.5974  1.0000  -1.2759   0.0000   0.0000   0.0000   0.3574
   4.500   0.9577   0.00915   0.00389  -0.1018  0.5648  1.0000  -1.3889   0.0000   0.0000   0.0000   0.3501
   5.000   1.0091   0.00960   0.00421  -0.1010  0.5273  1.0000  -1.5117   0.0000   0.0000   0.0000   0.3433
   5.500   1.0588   0.01018   0.00464  -0.1000  0.4873  1.0000  -1.6603   0.0000   0.0000   0.0000   0.3371
   6.000   1.1070   0.01086   0.00516  -0.0988  0.4449  1.0000  -1.8356   0.0000   0.0000   0.0000   0.3313
   6.500   1.1544   0.01159   0.00577  -0.0976  0.4038  1.0000  -2.0810   0.0000   0.0000   0.0000   0.3259
   7.000   1.1988   0.01250   0.00651  -0.0960  0.3607  1.0000  -2.3997   0.0000   0.0000   0.0000   0.3208
   7.500   1.2425   0.01343   0.00731  -0.0943  0.3183  1.0000  -2.7302   0.0000   0.0000   0.0000   0.3160
   8.000   1.2837   0.01448   0.00822  -0.0923  0.2773  1.0000  -3.0655   0.0000   0.0000   0.0000   0.3113
   9.000   1.3549   0.01699   0.01046  -0.0868  0.1990  1.0000  -3.7303   0.0000   0.0000   0.0000   0.3020
   9.500   1.3824   0.01857   0.01188  -0.0831  0.1616  1.0000  -4.0457   0.0000   0.0000   0.0000   0.2973
  10.000   1.4050   0.02052   0.01366  -0.0791  0.1263  1.0000  -4.3482   0.0000   0.0000   0.0000   0.2928


