xflr5 v6.61

 Calculated polar for: peg24_10_revT

 1 1 Reynolds number fixed          Mach number fixed         

 xtrf =   1.000 (top)        1.000 (bottom)
 Mach =   0.000     Re =     0.120 e 6     Ncrit =   9.000

  alpha     CL        CD       CDp       Cm    Top Xtr Bot Xtr   Cpmin    Chinge    XCp    
 ------- -------- --------- --------- -------- ------- ------- -------- --------- ---------
   0.000   0.3658   0.01522   0.00879  -0.0813  0.8497  1.0000  -0.6314   0.0000   0.0000   0.0000   0.4716
   0.500   0.4041   0.01523   0.00869  -0.0786  0.8271  1.0000  -0.6726   0.0000   0.0000   0.0000   0.4431
   1.000   0.4465   0.01515   0.00849  -0.0759  0.8064  1.0000  -0.7194   0.0000   0.0000   0.0000   0.4181
   1.500   0.4888   0.01509   0.00832  -0.0730  0.7839  1.0000  -0.7710   0.0000   0.0000   0.0000   0.3969
   2.000   0.5332   0.01514   0.00830  -0.0706  0.7594  1.0000  -0.8287   0.0000   0.0000   0.0000   0.3794
   2.500   0.5828   0.01514   0.00823  -0.0689  0.7346  1.0000  -0.8958   0.0000   0.0000   0.0000   0.3647
   3.000   0.6347   0.01513   0.00816  -0.0674  0.7090  1.0000  -0.9741   0.0000   0.0000   0.0000   0.3523
   3.500   0.6875   0.01511   0.00810  -0.0660  0.6817  1.0000  -1.0704   0.0000   0.0000   0.0000   0.3417
   4.000   0.7408   0.01511   0.00803  -0.0647  0.6526  1.0000  -1.1825   0.0000   0.0000   0.0000   0.3325
   4.500   0.7930   0.01523   0.00811  -0.0633  0.6201  1.0000  -1.3304   0.0000   0.0000   0.0000   0.3246
   5.000   0.8433   0.01547   0.00835  -0.0618  0.5827  1.0000  -1.5190   0.0000   0.0000   0.0000   0.3175
   5.500   0.8947   0.01580   0.00855  -0.0603  0.5446  1.0000  -1.8487   0.0000   0.0000   0.0000   0.3111
   6.000   0.9422   0.01629   0.00902  -0.0585  0.5000  1.0000  -2.1819   0.0000   0.0000   0.0000   0.3052
   6.500   0.9887   0.01697   0.00967  -0.0566  0.4543  1.0000  -2.5261   0.0000   0.0000   0.0000   0.2998
   7.000   1.0330   0.01778   0.01040  -0.0545  0.4061  1.0000  -2.8770   0.0000   0.0000   0.0000   0.2947
   7.500   1.0740   0.01874   0.01130  -0.0521  0.3539  1.0000  -3.2280   0.0000   0.0000   0.0000   0.2899
   8.000   1.1112   0.01995   0.01241  -0.0494  0.2982  1.0000  -3.5729   0.0000   0.0000   0.0000   0.2851
   8.500   1.1420   0.02166   0.01389  -0.0461  0.2383  1.0000  -3.8958   0.0000   0.0000   0.0000   0.2804
   9.000   1.1662   0.02392   0.01593  -0.0422  0.1764  1.0000  -4.1830   0.0000   0.0000   0.0000   0.2755
   9.500   1.1834   0.02689   0.01860  -0.0378  0.1305  1.0000  -4.4239   0.0000   0.0000   0.0000   0.2705
  10.000   1.1986   0.02983   0.02150  -0.0333  0.0998  1.0000  -4.6421   0.0000   0.0000   0.0000   0.2657


