xflr5 v6.61

 Calculated polar for: peg24_45_revT

 1 1 Reynolds number fixed          Mach number fixed         

 xtrf =   1.000 (top)        1.000 (bottom)
 Mach =   0.000     Re =     0.215 e 6     Ncrit =   9.000

  alpha     CL        CD       CDp       Cm    Top Xtr Bot Xtr   Cpmin    Chinge    XCp    
 ------- -------- --------- --------- -------- ------- ------- -------- --------- ---------
   0.000   0.4432   0.01195   0.00649  -0.1032  0.7827  0.8485  -0.7074   0.0000   0.0000   0.0000   0.4818
   0.500   0.4836   0.01178   0.00645  -0.0990  0.7677  0.9069  -0.7487   0.0000   0.0000   0.0000   0.4530
   1.000   0.5516   0.01140   0.00598  -0.1002  0.7565  0.9766  -0.8108   0.0000   0.0000   0.0000   0.4294
   1.500   0.6139   0.01140   0.00591  -0.1021  0.7400  1.0000  -0.8732   0.0000   0.0000   0.0000   0.4134
   2.000   0.6738   0.01136   0.00571  -0.1027  0.7258  1.0000  -0.9379   0.0000   0.0000   0.0000   0.3990
   2.500   0.7303   0.01132   0.00560  -0.1027  0.7074  1.0000  -1.0074   0.0000   0.0000   0.0000   0.3867
   3.000   0.7861   0.01137   0.00561  -0.1026  0.6881  1.0000  -1.0815   0.0000   0.0000   0.0000   0.3760
   3.500   0.8422   0.01140   0.00556  -0.1023  0.6675  1.0000  -1.1679   0.0000   0.0000   0.0000   0.3665
   4.000   0.8971   0.01146   0.00556  -0.1018  0.6437  1.0000  -1.2622   0.0000   0.0000   0.0000   0.3580
   4.500   0.9504   0.01160   0.00566  -0.1011  0.6152  1.0000  -1.3741   0.0000   0.0000   0.0000   0.3503
   5.000   1.0026   0.01185   0.00585  -0.1002  0.5827  1.0000  -1.4970   0.0000   0.0000   0.0000   0.3433
   5.500   1.0532   0.01227   0.00610  -0.0991  0.5462  1.0000  -1.6444   0.0000   0.0000   0.0000   0.3368
   6.000   1.1014   0.01282   0.00660  -0.0977  0.5055  1.0000  -1.8164   0.0000   0.0000   0.0000   0.3308
   6.500   1.1473   0.01357   0.00718  -0.0960  0.4629  1.0000  -2.0263   0.0000   0.0000   0.0000   0.3252
   7.000   1.1912   0.01442   0.00793  -0.0941  0.4199  1.0000  -2.3386   0.0000   0.0000   0.0000   0.3198
   7.500   1.2328   0.01540   0.00880  -0.0920  0.3767  1.0000  -2.6568   0.0000   0.0000   0.0000   0.3148
   8.000   1.2705   0.01658   0.00982  -0.0894  0.3341  1.0000  -2.9743   0.0000   0.0000   0.0000   0.3098
   8.500   1.3056   0.01782   0.01100  -0.0865  0.2920  1.0000  -3.2934   0.0000   0.0000   0.0000   0.3050
   9.000   1.3355   0.01925   0.01233  -0.0829  0.2520  1.0000  -3.6025   0.0000   0.0000   0.0000   0.3001
   9.500   1.3570   0.02106   0.01398  -0.0785  0.2137  1.0000  -3.8872   0.0000   0.0000   0.0000   0.2951
  10.000   1.3788   0.02303   0.01593  -0.0745  0.1771  1.0000  -4.1763   0.0000   0.0000   0.0000   0.2905


