xflr5 v6.61

 Calculated polar for: peg24_95_revT

 1 1 Reynolds number fixed          Mach number fixed         

 xtrf =   1.000 (top)        1.000 (bottom)
 Mach =   0.000     Re =     0.035 e 6     Ncrit =   9.000

  alpha     CL        CD       CDp       Cm    Top Xtr Bot Xtr   Cpmin    Chinge    XCp    
 ------- -------- --------- --------- -------- ------- ------- -------- --------- ---------
   0.000   0.0572   0.04830   0.03872  -0.0861  1.0000  0.6232  -1.0838   0.0000   0.0000   0.0000   1.7701
   0.500   0.0868   0.04846   0.03919  -0.0806  1.0000  0.7665  -0.9687   0.0000   0.0000   0.0000   1.1845
   1.000   0.1090   0.04707   0.03795  -0.0793  1.0000  1.0000  -0.8812   0.0000   0.0000   0.0000   0.9790
   1.500   0.1823   0.05053   0.04032  -0.0901  1.0000  1.0000  -0.7038   0.0000   0.0000   0.0000   0.7426
   2.000   0.2269   0.05365   0.04289  -0.0931  1.0000  1.0000  -0.5778   0.0000   0.0000   0.0000   0.6574
   2.500   0.2661   0.05694   0.04580  -0.0951  1.0000  1.0000  -0.5737   0.0000   0.0000   0.0000   0.6034
   3.000   0.3023   0.06045   0.04903  -0.0968  1.0000  1.0000  -0.5969   0.0000   0.0000   0.0000   0.5651
   3.500   0.3361   0.06420   0.05258  -0.0983  1.0000  1.0000  -0.6207   0.0000   0.0000   0.0000   0.5365
   4.000   0.3678   0.06821   0.05644  -0.0996  1.0000  1.0000  -0.6420   0.0000   0.0000   0.0000   0.5143
   4.500   0.3977   0.07249   0.06063  -0.1010  1.0000  1.0000  -0.6630   0.0000   0.0000   0.0000   0.4967
   5.000   0.4507   0.07881   0.06685  -0.1071  0.9895  1.0000  -0.7010   0.0000   0.0000   0.0000   0.4797
   6.000   0.5529   0.09157   0.07966  -0.1181  0.9174  1.0000  -0.7828   0.0000   0.0000   0.0000   0.4547
   6.500   0.5914   0.09679   0.08495  -0.1206  0.8775  1.0000  -0.8192   0.0000   0.0000   0.0000   0.4445
   7.000   0.6314   0.10294   0.09118  -0.1235  0.8458  1.0000  -0.8618   0.0000   0.0000   0.0000   0.4356
   7.500   0.6782   0.11006   0.09840  -0.1271  0.8134  1.0000  -0.9113   0.0000   0.0000   0.0000   0.4269
   8.000   0.7020   0.11550   0.10397  -0.1277  0.7865  1.0000  -0.9428   0.0000   0.0000   0.0000   0.4209


