xflr5 v6.61

 Calculated polar for: peg24_0_revT

 1 1 Reynolds number fixed          Mach number fixed         

 xtrf =   1.000 (top)        1.000 (bottom)
 Mach =   0.000     Re =     0.125 e 6     Ncrit =   9.000

  alpha     CL        CD       CDp       Cm    Top Xtr Bot Xtr   Cpmin    Chinge    XCp    
 ------- -------- --------- --------- -------- ------- ------- -------- --------- ---------
   0.000   0.3637   0.01484   0.00852  -0.0753  0.8531  0.9817  -0.6287   0.0000   0.0000   0.0000   0.4563
   0.500   0.4583   0.01423   0.00780  -0.0832  0.8314  1.0000  -0.7058   0.0000   0.0000   0.0000   0.4302
   1.000   0.4922   0.01402   0.00749  -0.0793  0.8047  1.0000  -0.7526   0.0000   0.0000   0.0000   0.4092
   1.500   0.5257   0.01389   0.00725  -0.0751  0.7785  1.0000  -0.8006   0.0000   0.0000   0.0000   0.3904
   2.000   0.5600   0.01382   0.00708  -0.0708  0.7524  1.0000  -0.8552   0.0000   0.0000   0.0000   0.3736
   2.500   0.5909   0.01389   0.00713  -0.0660  0.7231  1.0000  -0.9148   0.0000   0.0000   0.0000   0.3584
   3.000   0.6276   0.01398   0.00716  -0.0621  0.6941  1.0000  -0.9908   0.0000   0.0000   0.0000   0.3451
   3.500   0.6697   0.01405   0.00712  -0.0588  0.6638  1.0000  -1.0865   0.0000   0.0000   0.0000   0.3337
   4.000   0.7153   0.01419   0.00712  -0.0562  0.6329  1.0000  -1.2137   0.0000   0.0000   0.0000   0.3239
   4.500   0.7590   0.01446   0.00742  -0.0535  0.5966  1.0000  -1.3784   0.0000   0.0000   0.0000   0.3153
   5.000   0.8061   0.01478   0.00760  -0.0512  0.5599  1.0000  -1.6074   0.0000   0.0000   0.0000   0.3080
   5.500   0.8509   0.01521   0.00795  -0.0488  0.5186  1.0000  -1.8973   0.0000   0.0000   0.0000   0.3012
   6.000   0.8942   0.01575   0.00847  -0.0462  0.4742  1.0000  -2.2344   0.0000   0.0000   0.0000   0.2950
   6.500   0.9366   0.01643   0.00909  -0.0436  0.4302  1.0000  -2.5932   0.0000   0.0000   0.0000   0.2893
   7.000   0.9755   0.01717   0.00973  -0.0405  0.3807  1.0000  -2.9555   0.0000   0.0000   0.0000   0.2837
   7.500   1.0114   0.01809   0.01060  -0.0371  0.3302  1.0000  -3.3181   0.0000   0.0000   0.0000   0.2783
   8.000   1.0421   0.01926   0.01163  -0.0331  0.2749  1.0000  -3.6674   0.0000   0.0000   0.0000   0.2728
   8.500   1.0663   0.02082   0.01301  -0.0284  0.2145  1.0000  -3.9890   0.0000   0.0000   0.0000   0.2670
   9.000   1.0807   0.02309   0.01494  -0.0226  0.1586  1.0000  -4.2574   0.0000   0.0000   0.0000   0.2606
   9.500   1.0898   0.02545   0.01711  -0.0162  0.1197  1.0000  -4.4940   0.0000   0.0000   0.0000   0.2539
  10.000   1.0981   0.02816   0.01972  -0.0104  0.0923  1.0000  -4.7171   0.0000   0.0000   0.0000   0.2479


