xflr5 v6.61

 Calculated polar for: peg24_80_revT

 1 1 Reynolds number fixed          Mach number fixed         

 xtrf =   1.000 (top)        1.000 (bottom)
 Mach =   0.000     Re =     0.145 e 6     Ncrit =   9.000

  alpha     CL        CD       CDp       Cm    Top Xtr Bot Xtr   Cpmin    Chinge    XCp    
 ------- -------- --------- --------- -------- ------- ------- -------- --------- ---------
   0.000   0.5442   0.02172   0.01556  -0.1414  0.7895  0.7677  -0.7786   0.0000   0.0000   0.0000   0.5092
   0.500   0.5937   0.02096   0.01493  -0.1373  0.7835  0.8640  -0.8256   0.0000   0.0000   0.0000   0.4797
   1.000   0.6311   0.02146   0.01548  -0.1347  0.7654  1.0000  -0.8617   0.0000   0.0000   0.0000   0.4611
   1.500   0.7074   0.02072   0.01451  -0.1373  0.7587  1.0000  -0.9325   0.0000   0.0000   0.0000   0.4412
   2.000   0.7584   0.02131   0.01501  -0.1371  0.7429  1.0000  -0.9878   0.0000   0.0000   0.0000   0.4272
   2.500   0.8275   0.02048   0.01406  -0.1381  0.7336  1.0000  -1.0621   0.0000   0.0000   0.0000   0.4127
   3.000   0.8839   0.02047   0.01401  -0.1378  0.7196  1.0000  -1.1305   0.0000   0.0000   0.0000   0.4010
   3.500   0.9486   0.01968   0.01316  -0.1381  0.7072  1.0000  -1.2156   0.0000   0.0000   0.0000   0.3901
   4.000   1.0040   0.01950   0.01300  -0.1375  0.6909  1.0000  -1.2972   0.0000   0.0000   0.0000   0.3808
   4.500   1.0719   0.01849   0.01191  -0.1381  0.6777  1.0000  -1.4062   0.0000   0.0000   0.0000   0.3720
   5.000   1.1235   0.01836   0.01186  -0.1368  0.6568  1.0000  -1.5064   0.0000   0.0000   0.0000   0.3644
   5.500   1.1791   0.01798   0.01149  -0.1359  0.6346  1.0000  -1.6262   0.0000   0.0000   0.0000   0.3572
   6.000   1.2336   0.01768   0.01120  -0.1349  0.6091  1.0000  -1.7574   0.0000   0.0000   0.0000   0.3505
   6.500   1.2854   0.01757   0.01103  -0.1335  0.5782  1.0000  -1.9064   0.0000   0.0000   0.0000   0.3443
   7.000   1.3353   0.01777   0.01110  -0.1318  0.5431  1.0000  -2.0665   0.0000   0.0000   0.0000   0.3385
   7.500   1.3752   0.01847   0.01176  -0.1289  0.5024  1.0000  -2.2256   0.0000   0.0000   0.0000   0.3327
   8.000   1.4131   0.01944   0.01253  -0.1258  0.4612  1.0000  -2.4055   0.0000   0.0000   0.0000   0.3273
   8.500   1.4435   0.02068   0.01370  -0.1218  0.4202  1.0000  -2.5937   0.0000   0.0000   0.0000   0.3218
   9.000   1.4677   0.02217   0.01504  -0.1170  0.3823  1.0000  -2.7893   0.0000   0.0000   0.0000   0.3163
   9.500   1.4855   0.02391   0.01673  -0.1116  0.3463  1.0000  -3.0079   0.0000   0.0000   0.0000   0.3109
  10.000   1.5002   0.02602   0.01875  -0.1063  0.3131  1.0000  -3.2323   0.0000   0.0000   0.0000   0.3058


