xflr5 v6.61

 Calculated polar for: peg24_60_revT

 1 1 Reynolds number fixed          Mach number fixed         

 xtrf =   1.000 (top)        1.000 (bottom)
 Mach =   0.000     Re =     0.285 e 6     Ncrit =   9.000

  alpha     CL        CD       CDp       Cm    Top Xtr Bot Xtr   Cpmin    Chinge    XCp    
 ------- -------- --------- --------- -------- ------- ------- -------- --------- ---------
   0.000   0.5285   0.01050   0.00521  -0.1230  0.7598  0.7595  -0.7723   0.0000   0.0000   0.0000   0.4817
   0.500   0.5795   0.01048   0.00528  -0.1214  0.7488  0.8179  -0.8186   0.0000   0.0000   0.0000   0.4577
   1.000   0.6279   0.01027   0.00516  -0.1190  0.7367  0.8754  -0.8692   0.0000   0.0000   0.0000   0.4371
   1.500   0.6774   0.01001   0.00494  -0.1167  0.7249  0.9525  -0.9243   0.0000   0.0000   0.0000   0.4192
   2.000   0.7427   0.00991   0.00478  -0.1187  0.7102  1.0000  -0.9919   0.0000   0.0000   0.0000   0.4062
   2.500   0.8014   0.00996   0.00473  -0.1193  0.6952  1.0000  -1.0605   0.0000   0.0000   0.0000   0.3946
   3.000   0.8591   0.00997   0.00464  -0.1195  0.6784  1.0000  -1.1369   0.0000   0.0000   0.0000   0.3843
   3.500   0.9146   0.01007   0.00473  -0.1193  0.6589  1.0000  -1.2181   0.0000   0.0000   0.0000   0.3752
   4.000   0.9697   0.01019   0.00480  -0.1191  0.6365  1.0000  -1.3099   0.0000   0.0000   0.0000   0.3669
   4.500   1.0235   0.01037   0.00491  -0.1186  0.6101  1.0000  -1.4144   0.0000   0.0000   0.0000   0.3593
   5.000   1.0757   0.01067   0.00512  -0.1178  0.5794  1.0000  -1.5313   0.0000   0.0000   0.0000   0.3524
   5.500   1.1256   0.01113   0.00543  -0.1166  0.5436  1.0000  -1.6591   0.0000   0.0000   0.0000   0.3459
   6.000   1.1736   0.01170   0.00591  -0.1153  0.5040  1.0000  -1.8078   0.0000   0.0000   0.0000   0.3399
   6.500   1.2186   0.01248   0.00652  -0.1135  0.4619  1.0000  -1.9714   0.0000   0.0000   0.0000   0.3341
   7.000   1.2616   0.01336   0.00727  -0.1116  0.4196  1.0000  -2.1633   0.0000   0.0000   0.0000   0.3287
   7.500   1.3021   0.01435   0.00813  -0.1093  0.3785  1.0000  -2.4089   0.0000   0.0000   0.0000   0.3235
   8.000   1.3381   0.01553   0.00914  -0.1064  0.3377  1.0000  -2.7046   0.0000   0.0000   0.0000   0.3183
   8.500   1.3722   0.01671   0.01026  -0.1032  0.3003  1.0000  -3.0045   0.0000   0.0000   0.0000   0.3134
   9.000   1.3988   0.01816   0.01157  -0.0991  0.2643  1.0000  -3.2883   0.0000   0.0000   0.0000   0.3082
   9.500   1.4237   0.01981   0.01314  -0.0951  0.2306  1.0000  -3.5730   0.0000   0.0000   0.0000   0.3034
  10.000   1.4462   0.02174   0.01501  -0.0913  0.1979  1.0000  -3.8559   0.0000   0.0000   0.0000   0.2989


