xflr5 v6.61

 Calculated polar for: peg24_40_revT

 1 1 Reynolds number fixed          Mach number fixed         

 xtrf =   1.000 (top)        1.000 (bottom)
 Mach =   0.000     Re =     0.070 e 6     Ncrit =   9.000

  alpha     CL        CD       CDp       Cm    Top Xtr Bot Xtr   Cpmin    Chinge    XCp    
 ------- -------- --------- --------- -------- ------- ------- -------- --------- ---------
   0.000   0.2134   0.02854   0.02060  -0.0817  0.8864  1.0000  -0.5311   0.0000   0.0000   0.0000   0.6335
   0.500   0.2990   0.02964   0.02136  -0.0881  0.8685  1.0000  -0.5911   0.0000   0.0000   0.0000   0.5438
   1.000   0.3532   0.03072   0.02223  -0.0893  0.8450  1.0000  -0.6358   0.0000   0.0000   0.0000   0.5011
   1.500   0.4120   0.03187   0.02323  -0.0908  0.8219  1.0000  -0.6868   0.0000   0.0000   0.0000   0.4680
   2.000   0.4767   0.03288   0.02413  -0.0928  0.8001  1.0000  -0.7456   0.0000   0.0000   0.0000   0.4415
   2.500   0.5669   0.03286   0.02407  -0.0971  0.7831  1.0000  -0.8326   0.0000   0.0000   0.0000   0.4176
   3.000   0.6195   0.03357   0.02479  -0.0965  0.7579  1.0000  -0.8957   0.0000   0.0000   0.0000   0.4017
   3.500   0.6749   0.03411   0.02536  -0.0960  0.7330  1.0000  -0.9668   0.0000   0.0000   0.0000   0.3876
   4.000   0.7324   0.03430   0.02562  -0.0952  0.7083  1.0000  -1.0507   0.0000   0.0000   0.0000   0.3748
   4.500   0.7912   0.03415   0.02559  -0.0941  0.6839  1.0000  -1.1470   0.0000   0.0000   0.0000   0.3632
   5.000   0.8530   0.03353   0.02510  -0.0928  0.6602  1.0000  -1.2662   0.0000   0.0000   0.0000   0.3525
   5.500   0.9188   0.03232   0.02405  -0.0914  0.6364  1.0000  -1.4076   0.0000   0.0000   0.0000   0.3427
   6.000   0.9866   0.03073   0.02263  -0.0899  0.6106  1.0000  -1.5874   0.0000   0.0000   0.0000   0.3338
   6.500   1.0553   0.02904   0.02108  -0.0885  0.5810  1.0000  -1.8090   0.0000   0.0000   0.0000   0.3259
   7.000   1.1285   0.02725   0.01924  -0.0876  0.5471  1.0000  -2.1404   0.0000   0.0000   0.0000   0.3190
   7.500   1.1745   0.02751   0.01962  -0.0847  0.5037  1.0000  -2.4502   0.0000   0.0000   0.0000   0.3128
   8.000   1.2238   0.02780   0.01983  -0.0821  0.4578  1.0000  -2.7949   0.0000   0.0000   0.0000   0.3071
   8.500   1.2675   0.02863   0.02056  -0.0792  0.4096  1.0000  -3.1333   0.0000   0.0000   0.0000   0.3017
   9.000   1.3033   0.02998   0.02175  -0.0755  0.3595  1.0000  -3.4509   0.0000   0.0000   0.0000   0.2965
   9.500   1.3311   0.03182   0.02341  -0.0713  0.3094  1.0000  -3.7431   0.0000   0.0000   0.0000   0.2913
  10.000   1.3533   0.03416   0.02552  -0.0666  0.2613  1.0000  -4.0127   0.0000   0.0000   0.0000   0.2862


