xflr5 v6.61

 Calculated polar for: peg24_10_revT

 1 1 Reynolds number fixed          Mach number fixed         

 xtrf =   1.000 (top)        1.000 (bottom)
 Mach =   0.000     Re =     0.220 e 6     Ncrit =   9.000

  alpha     CL        CD       CDp       Cm    Top Xtr Bot Xtr   Cpmin    Chinge    XCp    
 ------- -------- --------- --------- -------- ------- ------- -------- --------- ---------
   0.000   0.2747   0.01017   0.00492  -0.0588  0.7871  0.9089  -0.5891   0.0000   0.0000   0.0000   0.4632
   0.500   0.3293   0.01011   0.00481  -0.0575  0.7690  0.9483  -0.6389   0.0000   0.0000   0.0000   0.4229
   1.000   0.4119   0.00998   0.00454  -0.0623  0.7509  0.9772  -0.7102   0.0000   0.0000   0.0000   0.3990
   1.500   0.5024   0.00981   0.00424  -0.0693  0.7294  0.9995  -0.7925   0.0000   0.0000   0.0000   0.3852
   2.000   0.5472   0.00981   0.00417  -0.0676  0.7056  1.0000  -0.8515   0.0000   0.0000   0.0000   0.3705
   2.500   0.5928   0.00989   0.00416  -0.0659  0.6807  1.0000  -0.9163   0.0000   0.0000   0.0000   0.3575
   3.000   0.6429   0.01003   0.00419  -0.0648  0.6536  1.0000  -0.9941   0.0000   0.0000   0.0000   0.3467
   3.500   0.6947   0.01023   0.00426  -0.0638  0.6240  1.0000  -1.0926   0.0000   0.0000   0.0000   0.3374
   4.000   0.7461   0.01049   0.00448  -0.0629  0.5902  1.0000  -1.2030   0.0000   0.0000   0.0000   0.3294
   4.500   0.7973   0.01084   0.00472  -0.0620  0.5534  1.0000  -1.3558   0.0000   0.0000   0.0000   0.3223
   5.000   0.8477   0.01130   0.00507  -0.0609  0.5146  1.0000  -1.5928   0.0000   0.0000   0.0000   0.3159
   5.500   0.8968   0.01185   0.00550  -0.0597  0.4714  1.0000  -1.9225   0.0000   0.0000   0.0000   0.3101
   6.000   0.9457   0.01247   0.00606  -0.0585  0.4292  1.0000  -2.2678   0.0000   0.0000   0.0000   0.3049
   6.500   0.9925   0.01322   0.00669  -0.0572  0.3821  1.0000  -2.6228   0.0000   0.0000   0.0000   0.3000
   7.000   1.0379   0.01409   0.00745  -0.0557  0.3340  1.0000  -2.9870   0.0000   0.0000   0.0000   0.2955
   7.500   1.0815   0.01511   0.00834  -0.0540  0.2837  1.0000  -3.3571   0.0000   0.0000   0.0000   0.2912
   8.000   1.1223   0.01634   0.00940  -0.0522  0.2277  1.0000  -3.7269   0.0000   0.0000   0.0000   0.2871
   8.500   1.1579   0.01799   0.01077  -0.0498  0.1654  1.0000  -4.0822   0.0000   0.0000   0.0000   0.2830
   9.000   1.1880   0.02006   0.01250  -0.0469  0.1103  1.0000  -4.4158   0.0000   0.0000   0.0000   0.2788
   9.500   1.2147   0.02223   0.01451  -0.0436  0.0783  1.0000  -4.7433   0.0000   0.0000   0.0000   0.2745
  10.000   1.2363   0.02450   0.01683  -0.0396  0.0583  1.0000  -5.0385   0.0000   0.0000   0.0000   0.2699


