xflr5 v6.61

 Calculated polar for: peg24_0_revT

 1 1 Reynolds number fixed          Mach number fixed         

 xtrf =   1.000 (top)        1.000 (bottom)
 Mach =   0.000     Re =     0.330 e 6     Ncrit =   9.000

  alpha     CL        CD       CDp       Cm    Top Xtr Bot Xtr   Cpmin    Chinge    XCp    
 ------- -------- --------- --------- -------- ------- ------- -------- --------- ---------
   0.000   0.2420   0.00794   0.00308  -0.0499  0.7537  0.8633  -0.5673   0.0000   0.0000   0.0000   0.4551
   0.500   0.2913   0.00793   0.00305  -0.0477  0.7327  0.8954  -0.6150   0.0000   0.0000   0.0000   0.4121
   1.000   0.3428   0.00793   0.00305  -0.0460  0.7116  0.9264  -0.6657   0.0000   0.0000   0.0000   0.3817
   1.500   0.4066   0.00799   0.00304  -0.0470  0.6870  0.9527  -0.7322   0.0000   0.0000   0.0000   0.3627
   2.000   0.4823   0.00812   0.00305  -0.0509  0.6610  0.9705  -0.8104   0.0000   0.0000   0.0000   0.3523
   2.500   0.5610   0.00825   0.00310  -0.0556  0.6296  0.9836  -0.9043   0.0000   0.0000   0.0000   0.3456
   3.000   0.6397   0.00839   0.00313  -0.0607  0.5946  0.9965  -1.0196   0.0000   0.0000   0.0000   0.3409
   3.500   0.6847   0.00859   0.00318  -0.0590  0.5603  1.0000  -1.1187   0.0000   0.0000   0.0000   0.3318
   4.000   0.7201   0.00886   0.00334  -0.0552  0.5256  1.0000  -1.2420   0.0000   0.0000   0.0000   0.3219
   4.500   0.7612   0.00927   0.00361  -0.0524  0.4874  1.0000  -1.4077   0.0000   0.0000   0.0000   0.3136
   5.000   0.8057   0.00972   0.00394  -0.0503  0.4490  1.0000  -1.6707   0.0000   0.0000   0.0000   0.3066
   5.500   0.8511   0.01023   0.00433  -0.0484  0.4085  1.0000  -2.0206   0.0000   0.0000   0.0000   0.3006
   6.000   0.8935   0.01094   0.00481  -0.0461  0.3517  1.0000  -2.3797   0.0000   0.0000   0.0000   0.2948
   6.500   0.9353   0.01176   0.00537  -0.0439  0.2908  1.0000  -2.7535   0.0000   0.0000   0.0000   0.2896
   7.000   0.9764   0.01266   0.00604  -0.0416  0.2372  1.0000  -3.1406   0.0000   0.0000   0.0000   0.2847
   7.500   1.0155   0.01370   0.00687  -0.0391  0.1858  1.0000  -3.5337   0.0000   0.0000   0.0000   0.2801
   8.000   1.0511   0.01495   0.00783  -0.0362  0.1297  1.0000  -3.9233   0.0000   0.0000   0.0000   0.2754
   8.500   1.0853   0.01621   0.00889  -0.0331  0.0920  1.0000  -4.3148   0.0000   0.0000   0.0000   0.2708
   9.000   1.1183   0.01742   0.01001  -0.0298  0.0672  1.0000  -4.7046   0.0000   0.0000   0.0000   0.2663
   9.500   1.1449   0.01869   0.01122  -0.0255  0.0475  1.0000  -5.0573   0.0000   0.0000   0.0000   0.2613
  10.000   1.1552   0.02071   0.01310  -0.0189  0.0222  1.0000  -5.2515   0.0000   0.0000   0.0000   0.2547


