xflr5 v6.61

 Calculated polar for: peg24_05_revT

 1 1 Reynolds number fixed          Mach number fixed         

 xtrf =   1.000 (top)        1.000 (bottom)
 Mach =   0.000     Re =     0.430 e 6     Ncrit =   9.000

  alpha     CL        CD       CDp       Cm    Top Xtr Bot Xtr   Cpmin    Chinge    XCp    
 ------- -------- --------- --------- -------- ------- ------- -------- --------- ---------
   0.000   0.2713   0.00706   0.00241  -0.0573  0.7319  0.8262  -0.5869   0.0000   0.0000   0.0000   0.4601
   0.500   0.3231   0.00705   0.00243  -0.0559  0.7127  0.8577  -0.6356   0.0000   0.0000   0.0000   0.4212
   1.000   0.3737   0.00707   0.00244  -0.0542  0.6919  0.8889  -0.6874   0.0000   0.0000   0.0000   0.3926
   1.500   0.4235   0.00710   0.00245  -0.0523  0.6697  0.9222  -0.7430   0.0000   0.0000   0.0000   0.3706
   2.000   0.4806   0.00716   0.00247  -0.0520  0.6443  0.9526  -0.8093   0.0000   0.0000   0.0000   0.3550
   2.500   0.5534   0.00730   0.00254  -0.0554  0.6145  0.9744  -0.8935   0.0000   0.0000   0.0000   0.3465
   3.000   0.6296   0.00752   0.00264  -0.0598  0.5796  0.9896  -0.9937   0.0000   0.0000   0.0000   0.3410
   3.500   0.6960   0.00779   0.00277  -0.0625  0.5433  1.0000  -1.1150   0.0000   0.0000   0.0000   0.3353
   4.000   0.7347   0.00809   0.00295  -0.0593  0.5085  1.0000  -1.2218   0.0000   0.0000   0.0000   0.3258
   5.000   0.8258   0.00896   0.00356  -0.0555  0.4310  1.0000  -1.7023   0.0000   0.0000   0.0000   0.3113
   5.500   0.8719   0.00952   0.00396  -0.0538  0.3889  1.0000  -2.0352   0.0000   0.0000   0.0000   0.3053
   6.000   0.9178   0.01015   0.00444  -0.0521  0.3431  1.0000  -2.3839   0.0000   0.0000   0.0000   0.2998
   6.500   0.9618   0.01091   0.00500  -0.0502  0.2917  1.0000  -2.7416   0.0000   0.0000   0.0000   0.2947
   7.000   1.0037   0.01182   0.00566  -0.0480  0.2348  1.0000  -3.1058   0.0000   0.0000   0.0000   0.2899
   7.500   1.0442   0.01282   0.00646  -0.0458  0.1826  1.0000  -3.4758   0.0000   0.0000   0.0000   0.2852
   8.000   1.0803   0.01410   0.00742  -0.0429  0.1280  1.0000  -3.8451   0.0000   0.0000   0.0000   0.2805
   8.500   1.1151   0.01537   0.00851  -0.0398  0.0885  1.0000  -4.2295   0.0000   0.0000   0.0000   0.2759
   9.000   1.1471   0.01668   0.00969  -0.0363  0.0622  1.0000  -4.6072   0.0000   0.0000   0.0000   0.2712
   9.500   1.1728   0.01803   0.01095  -0.0318  0.0433  1.0000  -4.9560   0.0000   0.0000   0.0000   0.2660
  10.000   1.1886   0.01976   0.01262  -0.0259  0.0275  1.0000  -5.2291   0.0000   0.0000   0.0000   0.2600


