xflr5 v6.61

 Calculated polar for: peg24_30_revT

 1 1 Reynolds number fixed          Mach number fixed         

 xtrf =   1.000 (top)        1.000 (bottom)
 Mach =   0.000     Re =     0.415 e 6     Ncrit =   9.000

  alpha     CL        CD       CDp       Cm    Top Xtr Bot Xtr   Cpmin    Chinge    XCp    
 ------- -------- --------- --------- -------- ------- ------- -------- --------- ---------
   0.000   0.3946   0.00763   0.00286  -0.0882  0.7373  0.7904  -0.6731   0.0000   0.0000   0.0000   0.4724
   0.500   0.4478   0.00762   0.00287  -0.0872  0.7229  0.8296  -0.7237   0.0000   0.0000   0.0000   0.4427
   1.000   0.4995   0.00756   0.00284  -0.0857  0.7069  0.8686  -0.7766   0.0000   0.0000   0.0000   0.4191
   1.500   0.5491   0.00750   0.00284  -0.0838  0.6892  0.9083  -0.8309   0.0000   0.0000   0.0000   0.3996
   2.000   0.6031   0.00744   0.00278  -0.0827  0.6705  0.9582  -0.8932   0.0000   0.0000   0.0000   0.3837
   2.500   0.6728   0.00749   0.00274  -0.0857  0.6477  1.0000  -0.9736   0.0000   0.0000   0.0000   0.3735
   3.000   0.7284   0.00768   0.00281  -0.0858  0.6220  1.0000  -1.0522   0.0000   0.0000   0.0000   0.3634
   3.500   0.7832   0.00791   0.00295  -0.0857  0.5925  1.0000  -1.1384   0.0000   0.0000   0.0000   0.3545
   4.000   0.8370   0.00822   0.00316  -0.0854  0.5592  1.0000  -1.2458   0.0000   0.0000   0.0000   0.3466
   4.500   0.8891   0.00866   0.00343  -0.0847  0.5216  1.0000  -1.3623   0.0000   0.0000   0.0000   0.3394
   5.000   0.9409   0.00913   0.00380  -0.0841  0.4822  1.0000  -1.5086   0.0000   0.0000   0.0000   0.3330
   5.500   0.9909   0.00975   0.00424  -0.0833  0.4402  1.0000  -1.6908   0.0000   0.0000   0.0000   0.3270
   6.000   1.0411   0.01036   0.00474  -0.0825  0.3996  1.0000  -2.0122   0.0000   0.0000   0.0000   0.3217
   6.500   1.0892   0.01112   0.00534  -0.0814  0.3552  1.0000  -2.3505   0.0000   0.0000   0.0000   0.3166
   7.000   1.1357   0.01199   0.00604  -0.0802  0.3106  1.0000  -2.6987   0.0000   0.0000   0.0000   0.3118
   7.500   1.1810   0.01293   0.00681  -0.0788  0.2657  1.0000  -3.0578   0.0000   0.0000   0.0000   0.3074
   8.000   1.2235   0.01405   0.00772  -0.0772  0.2179  1.0000  -3.4203   0.0000   0.0000   0.0000   0.3030
   8.500   1.2628   0.01536   0.00881  -0.0751  0.1701  1.0000  -3.7824   0.0000   0.0000   0.0000   0.2987
   9.000   1.2986   0.01684   0.01005  -0.0727  0.1261  1.0000  -4.1405   0.0000   0.0000   0.0000   0.2945
   9.500   1.3306   0.01836   0.01142  -0.0696  0.0940  1.0000  -4.4967   0.0000   0.0000   0.0000   0.2901
  10.000   1.3589   0.01999   0.01299  -0.0662  0.0719  1.0000  -4.8533   0.0000   0.0000   0.0000   0.2858


