xflr5 v6.61

 Calculated polar for: peg24_65_revT

 1 1 Reynolds number fixed          Mach number fixed         

 xtrf =   1.000 (top)        1.000 (bottom)
 Mach =   0.000     Re =     0.370 e 6     Ncrit =   9.000

  alpha     CL        CD       CDp       Cm    Top Xtr Bot Xtr   Cpmin    Chinge    XCp    
 ------- -------- --------- --------- -------- ------- ------- -------- --------- ---------
   0.000   0.5591   0.00918   0.00404  -0.1295  0.7427  0.6988  -0.7966   0.0000   0.0000   0.0000   0.4803
   0.500   0.6142   0.00907   0.00400  -0.1288  0.7328  0.7641  -0.8453   0.0000   0.0000   0.0000   0.4577
   1.000   0.6669   0.00902   0.00407  -0.1276  0.7214  0.8192  -0.8985   0.0000   0.0000   0.0000   0.4388
   1.500   0.7172   0.00884   0.00399  -0.1258  0.7090  0.8737  -0.9544   0.0000   0.0000   0.0000   0.4222
   2.000   0.7669   0.00864   0.00387  -0.1238  0.6958  0.9577  -1.0128   0.0000   0.0000   0.0000   0.4076
   2.500   0.8291   0.00862   0.00377  -0.1251  0.6804  1.0000  -1.0832   0.0000   0.0000   0.0000   0.3966
   3.000   0.8863   0.00873   0.00384  -0.1254  0.6634  1.0000  -1.1589   0.0000   0.0000   0.0000   0.3866
   3.500   0.9429   0.00888   0.00389  -0.1255  0.6448  1.0000  -1.2397   0.0000   0.0000   0.0000   0.3777
   4.000   0.9977   0.00906   0.00399  -0.1253  0.6212  1.0000  -1.3320   0.0000   0.0000   0.0000   0.3695
   4.500   1.0513   0.00932   0.00418  -0.1248  0.5943  1.0000  -1.4337   0.0000   0.0000   0.0000   0.3621
   5.000   1.1030   0.00968   0.00446  -0.1241  0.5607  1.0000  -1.5481   0.0000   0.0000   0.0000   0.3552
   5.500   1.1526   0.01021   0.00484  -0.1230  0.5238  1.0000  -1.6732   0.0000   0.0000   0.0000   0.3488
   6.000   1.2001   0.01085   0.00535  -0.1217  0.4830  1.0000  -1.8166   0.0000   0.0000   0.0000   0.3428
   6.500   1.2446   0.01168   0.00598  -0.1199  0.4410  1.0000  -1.9722   0.0000   0.0000   0.0000   0.3371
   7.000   1.2885   0.01252   0.00671  -0.1181  0.3998  1.0000  -2.1543   0.0000   0.0000   0.0000   0.3317
   7.500   1.3280   0.01356   0.00757  -0.1157  0.3590  1.0000  -2.3535   0.0000   0.0000   0.0000   0.3265
   8.000   1.3663   0.01461   0.00850  -0.1131  0.3203  1.0000  -2.6419   0.0000   0.0000   0.0000   0.3215
   9.000   1.4279   0.01716   0.01084  -0.1059  0.2506  1.0000  -3.2216   0.0000   0.0000   0.0000   0.3114
   9.500   1.4534   0.01880   0.01236  -0.1020  0.2179  1.0000  -3.5058   0.0000   0.0000   0.0000   0.3066
  10.000   1.4758   0.02075   0.01422  -0.0982  0.1874  1.0000  -3.7856   0.0000   0.0000   0.0000   0.3021


