xflr5 v6.61

 Calculated polar for: peg24_40_revT

 1 1 Reynolds number fixed          Mach number fixed         

 xtrf =   1.000 (top)        1.000 (bottom)
 Mach =   0.000     Re =     0.300 e 6     Ncrit =   9.000

  alpha     CL        CD       CDp       Cm    Top Xtr Bot Xtr   Cpmin    Chinge    XCp    
 ------- -------- --------- --------- -------- ------- ------- -------- --------- ---------
   0.000   0.4345   0.00935   0.00426  -0.0990  0.7591  0.8103  -0.7019   0.0000   0.0000   0.0000   0.4768
   0.500   0.4843   0.00932   0.00429  -0.0971  0.7461  0.8572  -0.7498   0.0000   0.0000   0.0000   0.4487
   1.000   0.5320   0.00914   0.00412  -0.0944  0.7321  0.9060  -0.7997   0.0000   0.0000   0.0000   0.4250
   1.500   0.5895   0.00898   0.00400  -0.0940  0.7167  0.9654  -0.8597   0.0000   0.0000   0.0000   0.4066
   2.000   0.6578   0.00894   0.00382  -0.0967  0.7000  1.0000  -0.9304   0.0000   0.0000   0.0000   0.3935
   2.500   0.7145   0.00899   0.00381  -0.0970  0.6807  1.0000  -1.0008   0.0000   0.0000   0.0000   0.3817
   3.000   0.7705   0.00911   0.00386  -0.0970  0.6594  1.0000  -1.0761   0.0000   0.0000   0.0000   0.3714
   3.500   0.8257   0.00925   0.00394  -0.0968  0.6352  1.0000  -1.1631   0.0000   0.0000   0.0000   0.3622
   4.000   0.8799   0.00947   0.00406  -0.0964  0.6068  1.0000  -1.2608   0.0000   0.0000   0.0000   0.3540
   4.500   0.9327   0.00978   0.00425  -0.0958  0.5750  1.0000  -1.3756   0.0000   0.0000   0.0000   0.3466
   5.000   0.9841   0.01020   0.00457  -0.0950  0.5384  1.0000  -1.5030   0.0000   0.0000   0.0000   0.3398
   5.500   1.0338   0.01075   0.00498  -0.0939  0.4983  1.0000  -1.6583   0.0000   0.0000   0.0000   0.3336
   6.000   1.0823   0.01140   0.00551  -0.0927  0.4561  1.0000  -1.8457   0.0000   0.0000   0.0000   0.3279
   6.500   1.1285   0.01220   0.00613  -0.0913  0.4141  1.0000  -2.1424   0.0000   0.0000   0.0000   0.3224
   7.000   1.1739   0.01303   0.00686  -0.0898  0.3704  1.0000  -2.4696   0.0000   0.0000   0.0000   0.3174
   7.500   1.2171   0.01399   0.00770  -0.0880  0.3274  1.0000  -2.8032   0.0000   0.0000   0.0000   0.3126
   8.000   1.2568   0.01513   0.00867  -0.0858  0.2846  1.0000  -3.1381   0.0000   0.0000   0.0000   0.3078
   8.500   1.2949   0.01633   0.00976  -0.0834  0.2427  1.0000  -3.4784   0.0000   0.0000   0.0000   0.3033
   9.000   1.3285   0.01769   0.01100  -0.0805  0.2026  1.0000  -3.8118   0.0000   0.0000   0.0000   0.2988
   9.500   1.3547   0.01936   0.01249  -0.0766  0.1630  1.0000  -4.1247   0.0000   0.0000   0.0000   0.2940
  10.000   1.3757   0.02143   0.01439  -0.0725  0.1260  1.0000  -4.4215   0.0000   0.0000   0.0000   0.2894


