xflr5 v6.61

 Calculated polar for: peg24_95_revT

 1 1 Reynolds number fixed          Mach number fixed         

 xtrf =   1.000 (top)        1.000 (bottom)
 Mach =   0.000     Re =     0.235 e 6     Ncrit =   9.000

  alpha     CL        CD       CDp       Cm    Top Xtr Bot Xtr   Cpmin    Chinge    XCp    
 ------- -------- --------- --------- -------- ------- ------- -------- --------- ---------
   0.500   0.7328   0.01454   0.00877  -0.1619  0.7561  0.7071  -0.9362   0.0000   0.0000   0.0000   0.4691
   1.000   0.7786   0.01460   0.00909  -0.1596  0.7446  0.7865  -0.9802   0.0000   0.0000   0.0000   0.4525
   1.500   0.8255   0.01412   0.00875  -0.1567  0.7354  0.8717  -1.0324   0.0000   0.0000   0.0000   0.4365
   2.000   0.8834   0.01371   0.00830  -0.1562  0.7270  1.0000  -1.0962   0.0000   0.0000   0.0000   0.4229
   2.500   0.9394   0.01376   0.00833  -0.1565  0.7138  1.0000  -1.1611   0.0000   0.0000   0.0000   0.4120
   3.000   1.0037   0.01342   0.00782  -0.1576  0.7039  1.0000  -1.2363   0.0000   0.0000   0.0000   0.4017
   3.500   1.0572   0.01351   0.00794  -0.1571  0.6890  1.0000  -1.3114   0.0000   0.0000   0.0000   0.3927
   4.000   1.1189   0.01322   0.00752  -0.1577  0.6763  1.0000  -1.3986   0.0000   0.0000   0.0000   0.3843
   4.500   1.1706   0.01331   0.00767  -0.1569  0.6588  1.0000  -1.4911   0.0000   0.0000   0.0000   0.3767
   5.000   1.2250   0.01327   0.00762  -0.1563  0.6397  1.0000  -1.5937   0.0000   0.0000   0.0000   0.3696
   5.500   1.2779   0.01331   0.00761  -0.1555  0.6173  1.0000  -1.7081   0.0000   0.0000   0.0000   0.3630
   6.000   1.3272   0.01352   0.00779  -0.1541  0.5895  1.0000  -1.8266   0.0000   0.0000   0.0000   0.3567
   6.500   1.3729   0.01393   0.00811  -0.1522  0.5557  1.0000  -1.9566   0.0000   0.0000   0.0000   0.3507
   7.000   1.4151   0.01460   0.00862  -0.1497  0.5190  1.0000  -2.0994   0.0000   0.0000   0.0000   0.3449
   7.500   1.4509   0.01553   0.00944  -0.1464  0.4786  1.0000  -2.2387   0.0000   0.0000   0.0000   0.3392
   8.500   1.5020   0.01812   0.01177  -0.1368  0.4014  1.0000  -2.5179   0.0000   0.0000   0.0000   0.3278
   9.000   1.5198   0.01990   0.01341  -0.1314  0.3655  1.0000  -2.6652   0.0000   0.0000   0.0000   0.3224
   9.500   1.5355   0.02202   0.01540  -0.1263  0.3326  1.0000  -2.8276   0.0000   0.0000   0.0000   0.3173
  10.000   1.5527   0.02426   0.01763  -0.1219  0.3021  1.0000  -3.0125   0.0000   0.0000   0.0000   0.3127


