xflr5 v6.61

 Calculated polar for: peg24_20_revT

 1 1 Reynolds number fixed          Mach number fixed         

 xtrf =   1.000 (top)        1.000 (bottom)
 Mach =   0.000     Re =     0.045 e 6     Ncrit =   9.000

  alpha     CL        CD       CDp       Cm    Top Xtr Bot Xtr   Cpmin    Chinge    XCp    
 ------- -------- --------- --------- -------- ------- ------- -------- --------- ---------
   0.000  -0.0221   0.02698   0.01717  -0.0335  1.0000  1.0000  -0.7141   0.0000   0.0000   0.0000  -1.2807
   0.500   0.0445   0.02910   0.01889  -0.0394  0.9905  1.0000  -0.5412   0.0000   0.0000   0.0000   1.1367
   1.000   0.1316   0.03170   0.02115  -0.0488  0.9625  1.0000  -0.4817   0.0000   0.0000   0.0000   0.6186
   1.500   0.2137   0.03420   0.02342  -0.0567  0.9319  1.0000  -0.5395   0.0000   0.0000   0.0000   0.5122
   2.000   0.2925   0.03664   0.02574  -0.0634  0.9010  1.0000  -0.5996   0.0000   0.0000   0.0000   0.4632
   2.500   0.3686   0.03902   0.02806  -0.0690  0.8696  1.0000  -0.6641   0.0000   0.0000   0.0000   0.4333
   3.000   0.4448   0.04128   0.03033  -0.0738  0.8377  1.0000  -0.7368   0.0000   0.0000   0.0000   0.4117
   3.500   0.4874   0.04337   0.03247  -0.0737  0.8030  1.0000  -0.7871   0.0000   0.0000   0.0000   0.3965
   4.000   0.5400   0.04548   0.03469  -0.0746  0.7682  1.0000  -0.8533   0.0000   0.0000   0.0000   0.3831
   4.500   0.6027   0.04728   0.03665  -0.0760  0.7344  1.0000  -0.9407   0.0000   0.0000   0.0000   0.3707
   5.000   0.6789   0.04829   0.03790  -0.0776  0.7025  1.0000  -1.0656   0.0000   0.0000   0.0000   0.3585
   5.500   0.7027   0.05126   0.04101  -0.0751  0.6654  1.0000  -1.1296   0.0000   0.0000   0.0000   0.3506
   6.000   0.7585   0.05250   0.04252  -0.0741  0.6304  1.0000  -1.2671   0.0000   0.0000   0.0000   0.3410
   6.500   0.8479   0.05060   0.04102  -0.0728  0.5988  1.0000  -1.5150   0.0000   0.0000   0.0000   0.3287
   7.000   0.8536   0.05532   0.04592  -0.0697  0.5591  1.0000  -1.6028   0.0000   0.0000   0.0000   0.3239
   7.500   0.9726   0.04837   0.03951  -0.0656  0.5239  1.0000  -2.1709   0.0000   0.0000   0.0000   0.3092
   8.000   1.0351   0.04661   0.03812  -0.0611  0.4790  1.0000  -2.5607   0.0000   0.0000   0.0000   0.3001
   8.500   1.1439   0.04045   0.03194  -0.0574  0.4181  1.0000  -3.1755   0.0000   0.0000   0.0000   0.2905
   9.000   1.1835   0.04131   0.03282  -0.0525  0.3562  1.0000  -3.4962   0.0000   0.0000   0.0000   0.2840
   9.500   1.2214   0.04267   0.03391  -0.0478  0.2926  1.0000  -3.8058   0.0000   0.0000   0.0000   0.2780
  10.000   1.2542   0.04580   0.03665  -0.0437  0.2379  1.0000  -4.0676   0.0000   0.0000   0.0000   0.2729


