xflr5 v6.61

 Calculated polar for: peg24_60_revT

 1 1 Reynolds number fixed          Mach number fixed         

 xtrf =   1.000 (top)        1.000 (bottom)
 Mach =   0.000     Re =     0.135 e 6     Ncrit =   9.000

  alpha     CL        CD       CDp       Cm    Top Xtr Bot Xtr   Cpmin    Chinge    XCp    
 ------- -------- --------- --------- -------- ------- ------- -------- --------- ---------
   0.000   0.4418   0.01984   0.01383  -0.1142  0.8046  0.8878  -0.7048   0.0000   0.0000   0.0000   0.5079
   0.500   0.5046   0.01956   0.01349  -0.1151  0.7910  1.0000  -0.7556   0.0000   0.0000   0.0000   0.4768
   1.000   0.5811   0.01901   0.01269  -0.1180  0.7834  1.0000  -0.8227   0.0000   0.0000   0.0000   0.4509
   1.500   0.6315   0.01951   0.01310  -0.1179  0.7648  1.0000  -0.8738   0.0000   0.0000   0.0000   0.4339
   2.000   0.7024   0.01882   0.01224  -0.1191  0.7563  1.0000  -0.9466   0.0000   0.0000   0.0000   0.4162
   2.500   0.7529   0.01909   0.01248  -0.1183  0.7370  1.0000  -1.0064   0.0000   0.0000   0.0000   0.4031
   3.000   0.8173   0.01856   0.01187  -0.1185  0.7248  1.0000  -1.0865   0.0000   0.0000   0.0000   0.3905
   3.500   0.8744   0.01821   0.01150  -0.1179  0.7066  1.0000  -1.1659   0.0000   0.0000   0.0000   0.3797
   4.000   0.9293   0.01806   0.01137  -0.1171  0.6869  1.0000  -1.2552   0.0000   0.0000   0.0000   0.3703
   4.500   0.9887   0.01761   0.01091  -0.1167  0.6680  1.0000  -1.3591   0.0000   0.0000   0.0000   0.3617
   5.000   1.0477   0.01714   0.01041  -0.1161  0.6460  1.0000  -1.4804   0.0000   0.0000   0.0000   0.3539
   5.500   1.1014   0.01696   0.01023  -0.1150  0.6184  1.0000  -1.6093   0.0000   0.0000   0.0000   0.3468
   6.000   1.1523   0.01698   0.01027  -0.1135  0.5857  1.0000  -1.7552   0.0000   0.0000   0.0000   0.3403
   6.500   1.2032   0.01713   0.01030  -0.1119  0.5494  1.0000  -1.9240   0.0000   0.0000   0.0000   0.3341
   7.000   1.2485   0.01771   0.01083  -0.1098  0.5087  1.0000  -2.1104   0.0000   0.0000   0.0000   0.3284
   7.500   1.2922   0.01852   0.01141  -0.1075  0.4662  1.0000  -2.3316   0.0000   0.0000   0.0000   0.3229
   8.000   1.3287   0.01959   0.01246  -0.1044  0.4227  1.0000  -2.6136   0.0000   0.0000   0.0000   0.3175
   8.500   1.3624   0.02089   0.01366  -0.1010  0.3811  1.0000  -2.9002   0.0000   0.0000   0.0000   0.3124
   9.000   1.3899   0.02238   0.01504  -0.0968  0.3404  1.0000  -3.1803   0.0000   0.0000   0.0000   0.3071
   9.500   1.4105   0.02408   0.01667  -0.0918  0.3029  1.0000  -3.4427   0.0000   0.0000   0.0000   0.3018
  10.000   1.4254   0.02611   0.01868  -0.0866  0.2672  1.0000  -3.6893   0.0000   0.0000   0.0000   0.2966


