xflr5 v6.61

 Calculated polar for: peg24_25_revT

 1 1 Reynolds number fixed          Mach number fixed         

 xtrf =   1.000 (top)        1.000 (bottom)
 Mach =   0.000     Re =     0.315 e 6     Ncrit =   9.000

  alpha     CL        CD       CDp       Cm    Top Xtr Bot Xtr   Cpmin    Chinge    XCp    
 ------- -------- --------- --------- -------- ------- ------- -------- --------- ---------
   0.000   0.3638   0.00866   0.00368  -0.0809  0.7572  0.8344  -0.6508   0.0000   0.0000   0.0000   0.4714
   0.500   0.4137   0.00861   0.00367  -0.0790  0.7414  0.8756  -0.6993   0.0000   0.0000   0.0000   0.4392
   1.000   0.4615   0.00852   0.00357  -0.0763  0.7259  0.9166  -0.7498   0.0000   0.0000   0.0000   0.4131
   1.500   0.5197   0.00838   0.00343  -0.0761  0.7075  0.9611  -0.8091   0.0000   0.0000   0.0000   0.3936
   2.000   0.5976   0.00833   0.00332  -0.0807  0.6869  1.0000  -0.8886   0.0000   0.0000   0.0000   0.3818
   2.500   0.6507   0.00844   0.00333  -0.0805  0.6648  1.0000  -0.9563   0.0000   0.0000   0.0000   0.3699
   3.000   0.7053   0.00859   0.00338  -0.0803  0.6400  1.0000  -1.0358   0.0000   0.0000   0.0000   0.3596
   3.500   0.7594   0.00880   0.00349  -0.0800  0.6110  1.0000  -1.1233   0.0000   0.0000   0.0000   0.3505
   4.000   0.8126   0.00908   0.00366  -0.0794  0.5788  1.0000  -1.2328   0.0000   0.0000   0.0000   0.3425
   4.500   0.8647   0.00948   0.00391  -0.0787  0.5430  1.0000  -1.3518   0.0000   0.0000   0.0000   0.3353
   5.000   0.9160   0.00993   0.00427  -0.0780  0.5041  1.0000  -1.5091   0.0000   0.0000   0.0000   0.3288
   5.500   0.9658   0.01052   0.00471  -0.0770  0.4619  1.0000  -1.7345   0.0000   0.0000   0.0000   0.3229
   6.000   1.0149   0.01117   0.00524  -0.0760  0.4203  1.0000  -2.0636   0.0000   0.0000   0.0000   0.3174
   6.500   1.0627   0.01191   0.00585  -0.0748  0.3757  1.0000  -2.4053   0.0000   0.0000   0.0000   0.3124
   7.000   1.1089   0.01277   0.00657  -0.0735  0.3305  1.0000  -2.7565   0.0000   0.0000   0.0000   0.3077
   7.500   1.1530   0.01376   0.00740  -0.0720  0.2849  1.0000  -3.1148   0.0000   0.0000   0.0000   0.3032
   8.000   1.1949   0.01490   0.00836  -0.0702  0.2371  1.0000  -3.4776   0.0000   0.0000   0.0000   0.2989
   8.500   1.2339   0.01622   0.00949  -0.0681  0.1870  1.0000  -3.8406   0.0000   0.0000   0.0000   0.2946
   9.000   1.2683   0.01781   0.01083  -0.0655  0.1371  1.0000  -4.1936   0.0000   0.0000   0.0000   0.2904
   9.500   1.2974   0.01956   0.01239  -0.0622  0.0996  1.0000  -4.5324   0.0000   0.0000   0.0000   0.2860
  10.000   1.3215   0.02153   0.01425  -0.0584  0.0744  1.0000  -4.8657   0.0000   0.0000   0.0000   0.2815


