xflr5 v6.61

 Calculated polar for: peg24_55_revT

 1 1 Reynolds number fixed          Mach number fixed         

 xtrf =   1.000 (top)        1.000 (bottom)
 Mach =   0.000     Re =     0.425 e 6     Ncrit =   9.000

  alpha     CL        CD       CDp       Cm    Top Xtr Bot Xtr   Cpmin    Chinge    XCp    
 ------- -------- --------- --------- -------- ------- ------- -------- --------- ---------
   0.000   0.5148   0.00817   0.00321  -0.1180  0.7355  0.7159  -0.7629   0.0000   0.0000   0.0000   0.4780
   0.500   0.5695   0.00815   0.00328  -0.1173  0.7243  0.7735  -0.8119   0.0000   0.0000   0.0000   0.4541
   1.500   0.6744   0.00800   0.00327  -0.1149  0.6983  0.8700  -0.9231   0.0000   0.0000   0.0000   0.4172
   2.000   0.7221   0.00782   0.00320  -0.1125  0.6827  0.9296  -0.9792   0.0000   0.0000   0.0000   0.4021
   2.500   0.7854   0.00780   0.00315  -0.1140  0.6658  1.0000  -1.0530   0.0000   0.0000   0.0000   0.3909
   3.000   0.8427   0.00796   0.00319  -0.1143  0.6469  1.0000  -1.1285   0.0000   0.0000   0.0000   0.3809
   3.500   0.8984   0.00814   0.00328  -0.1143  0.6233  1.0000  -1.2131   0.0000   0.0000   0.0000   0.3719
   4.000   0.9529   0.00839   0.00345  -0.1140  0.5962  1.0000  -1.3039   0.0000   0.0000   0.0000   0.3638
   4.500   1.0062   0.00871   0.00369  -0.1136  0.5645  1.0000  -1.4123   0.0000   0.0000   0.0000   0.3565
   5.000   1.0576   0.00917   0.00401  -0.1129  0.5271  1.0000  -1.5318   0.0000   0.0000   0.0000   0.3497
   5.500   1.1072   0.00976   0.00444  -0.1119  0.4880  1.0000  -1.6669   0.0000   0.0000   0.0000   0.3434
   6.000   1.1552   0.01045   0.00497  -0.1107  0.4453  1.0000  -1.8215   0.0000   0.0000   0.0000   0.3375
   6.500   1.2022   0.01119   0.00558  -0.1094  0.4045  1.0000  -2.0040   0.0000   0.0000   0.0000   0.3321
   7.500   1.2898   0.01300   0.00708  -0.1059  0.3222  1.0000  -2.5566   0.0000   0.0000   0.0000   0.3219
   8.000   1.3295   0.01409   0.00800  -0.1037  0.2831  1.0000  -2.8746   0.0000   0.0000   0.0000   0.3170
   8.500   1.3674   0.01520   0.00900  -0.1012  0.2454  1.0000  -3.1986   0.0000   0.0000   0.0000   0.3123
   9.000   1.3981   0.01652   0.01017  -0.0976  0.2106  1.0000  -3.5076   0.0000   0.0000   0.0000   0.3074
   9.500   1.4277   0.01794   0.01150  -0.0942  0.1777  1.0000  -3.8212   0.0000   0.0000   0.0000   0.3028


