xflr5 v6.61

 Calculated polar for: peg24_30_revT

 1 1 Reynolds number fixed          Mach number fixed         

 xtrf =   1.000 (top)        1.000 (bottom)
 Mach =   0.000     Re =     0.070 e 6     Ncrit =   9.000

  alpha     CL        CD       CDp       Cm    Top Xtr Bot Xtr   Cpmin    Chinge    XCp    
 ------- -------- --------- --------- -------- ------- ------- -------- --------- ---------
   0.000   0.2162   0.02677   0.01868  -0.0769  0.8950  1.0000  -0.5303   0.0000   0.0000   0.0000   0.6058
   0.500   0.2726   0.02765   0.01930  -0.0787  0.8716  1.0000  -0.5730   0.0000   0.0000   0.0000   0.5377
   1.000   0.3349   0.02866   0.02013  -0.0810  0.8480  1.0000  -0.6231   0.0000   0.0000   0.0000   0.4900
   1.500   0.3995   0.02964   0.02098  -0.0833  0.8250  1.0000  -0.6796   0.0000   0.0000   0.0000   0.4559
   2.000   0.4734   0.03030   0.02156  -0.0862  0.8041  1.0000  -0.7475   0.0000   0.0000   0.0000   0.4291
   2.500   0.5534   0.03033   0.02157  -0.0891  0.7839  1.0000  -0.8287   0.0000   0.0000   0.0000   0.4074
   3.000   0.6095   0.03080   0.02206  -0.0887  0.7584  1.0000  -0.8963   0.0000   0.0000   0.0000   0.3914
   3.500   0.6671   0.03104   0.02236  -0.0880  0.7332  1.0000  -0.9751   0.0000   0.0000   0.0000   0.3774
   4.000   0.7259   0.03101   0.02241  -0.0870  0.7081  1.0000  -1.0633   0.0000   0.0000   0.0000   0.3648
   4.500   0.7860   0.03064   0.02216  -0.0857  0.6830  1.0000  -1.1751   0.0000   0.0000   0.0000   0.3536
   5.000   0.8477   0.02990   0.02156  -0.0842  0.6574  1.0000  -1.3042   0.0000   0.0000   0.0000   0.3433
   5.500   0.9120   0.02876   0.02057  -0.0826  0.6306  1.0000  -1.4701   0.0000   0.0000   0.0000   0.3340
   6.000   0.9791   0.02734   0.01926  -0.0811  0.6016  1.0000  -1.6829   0.0000   0.0000   0.0000   0.3257
   6.500   1.0378   0.02665   0.01865  -0.0791  0.5662  1.0000  -1.9707   0.0000   0.0000   0.0000   0.3185
   7.000   1.0936   0.02622   0.01824  -0.0769  0.5252  1.0000  -2.3166   0.0000   0.0000   0.0000   0.3120
   7.500   1.1418   0.02650   0.01855  -0.0742  0.4791  1.0000  -2.6581   0.0000   0.0000   0.0000   0.3060
   8.000   1.1871   0.02715   0.01912  -0.0713  0.4303  1.0000  -3.0021   0.0000   0.0000   0.0000   0.3004
   9.000   1.2570   0.02977   0.02153  -0.0639  0.3243  1.0000  -3.6375   0.0000   0.0000   0.0000   0.2897
   9.500   1.2810   0.03183   0.02341  -0.0593  0.2710  1.0000  -3.9148   0.0000   0.0000   0.0000   0.2844
  10.000   1.2989   0.03453   0.02593  -0.0543  0.2225  1.0000  -4.1584   0.0000   0.0000   0.0000   0.2792


