xflr5 v6.61

 Calculated polar for: peg24_40_revT

 1 1 Reynolds number fixed          Mach number fixed         

 xtrf =   1.000 (top)        1.000 (bottom)
 Mach =   0.000     Re =     0.110 e 6     Ncrit =   9.000

  alpha     CL        CD       CDp       Cm    Top Xtr Bot Xtr   Cpmin    Chinge    XCp    
 ------- -------- --------- --------- -------- ------- ------- -------- --------- ---------
   0.000   0.3568   0.02055   0.01405  -0.0952  0.8303  1.0000  -0.6344   0.0000   0.0000   0.0000   0.5163
   0.500   0.4257   0.02048   0.01374  -0.0978  0.8157  1.0000  -0.6908   0.0000   0.0000   0.0000   0.4784
   1.000   0.4818   0.02081   0.01392  -0.0982  0.7976  1.0000  -0.7421   0.0000   0.0000   0.0000   0.4518
   1.500   0.5526   0.02038   0.01334  -0.0996  0.7853  1.0000  -0.8105   0.0000   0.0000   0.0000   0.4277
   2.000   0.6049   0.02065   0.01355  -0.0989  0.7648  1.0000  -0.8676   0.0000   0.0000   0.0000   0.4104
   2.500   0.6671   0.02034   0.01318  -0.0988  0.7492  1.0000  -0.9401   0.0000   0.0000   0.0000   0.3944
   3.000   0.7286   0.01984   0.01263  -0.0984  0.7316  1.0000  -1.0183   0.0000   0.0000   0.0000   0.3809
   3.500   0.7826   0.01974   0.01255  -0.0973  0.7094  1.0000  -1.1000   0.0000   0.0000   0.0000   0.3695
   4.000   0.8391   0.01945   0.01228  -0.0963  0.6874  1.0000  -1.1929   0.0000   0.0000   0.0000   0.3594
   4.500   0.8968   0.01904   0.01188  -0.0953  0.6641  1.0000  -1.3077   0.0000   0.0000   0.0000   0.3504
   5.000   0.9534   0.01865   0.01151  -0.0941  0.6372  1.0000  -1.4350   0.0000   0.0000   0.0000   0.3424
   5.500   1.0091   0.01837   0.01122  -0.0929  0.6067  1.0000  -1.5894   0.0000   0.0000   0.0000   0.3351
   6.000   1.0648   0.01822   0.01097  -0.0917  0.5730  1.0000  -1.7782   0.0000   0.0000   0.0000   0.3285
   6.500   1.1121   0.01862   0.01139  -0.0897  0.5322  1.0000  -2.0005   0.0000   0.0000   0.0000   0.3224
   7.000   1.1601   0.01915   0.01178  -0.0877  0.4896  1.0000  -2.3197   0.0000   0.0000   0.0000   0.3168
   7.500   1.2029   0.01999   0.01254  -0.0853  0.4445  1.0000  -2.6403   0.0000   0.0000   0.0000   0.3114
   8.000   1.2414   0.02109   0.01360  -0.0825  0.3985  1.0000  -2.9574   0.0000   0.0000   0.0000   0.3062
   8.500   1.2761   0.02241   0.01484  -0.0792  0.3523  1.0000  -3.2717   0.0000   0.0000   0.0000   0.3011
   9.000   1.3054   0.02399   0.01627  -0.0754  0.3068  1.0000  -3.5741   0.0000   0.0000   0.0000   0.2961
   9.500   1.3271   0.02589   0.01801  -0.0708  0.2623  1.0000  -3.8534   0.0000   0.0000   0.0000   0.2909
  10.000   1.3398   0.02807   0.02019  -0.0653  0.2209  1.0000  -4.0964   0.0000   0.0000   0.0000   0.2855


