xflr5 v6.61

 Calculated polar for: peg24_100_revT

 1 1 Reynolds number fixed          Mach number fixed         

 xtrf =   1.000 (top)        1.000 (bottom)
 Mach =   0.000     Re =     0.080 e 6     Ncrit =   9.000

  alpha     CL        CD       CDp       Cm    Top Xtr Bot Xtr   Cpmin    Chinge    XCp    
 ------- -------- --------- --------- -------- ------- ------- -------- --------- ---------
   0.000   0.3911   0.04296   0.03524  -0.1425  0.8352  0.6288  -0.6601   0.0000   0.0000   0.0000   0.6154
   0.500   0.4225   0.04370   0.03628  -0.1386  0.8180  0.7326  -0.6848   0.0000   0.0000   0.0000   0.5778
   1.000   0.4412   0.04377   0.03677  -0.1308  0.8018  0.9287  -0.7063   0.0000   0.0000   0.0000   0.5451
   1.500   0.5285   0.04484   0.03730  -0.1379  0.7861  1.0000  -0.7707   0.0000   0.0000   0.0000   0.5085
   2.000   0.5663   0.04669   0.03891  -0.1372  0.7650  1.0000  -0.8045   0.0000   0.0000   0.0000   0.4890
   2.500   0.6694   0.04698   0.03891  -0.1431  0.7554  1.0000  -0.8963   0.0000   0.0000   0.0000   0.4597
   3.000   0.6962   0.04863   0.04048  -0.1404  0.7319  1.0000  -0.9297   0.0000   0.0000   0.0000   0.4468
   3.500   0.7324   0.05033   0.04211  -0.1387  0.7094  1.0000  -0.9711   0.0000   0.0000   0.0000   0.4338
   4.500   0.8634   0.05068   0.04236  -0.1398  0.6776  1.0000  -1.1272   0.0000   0.0000   0.0000   0.4049
   7.000   1.1813   0.04453   0.03660  -0.1349  0.5970  1.0000  -1.6722   0.0000   0.0000   0.0000   0.3534
   7.500   1.2239   0.04398   0.03618  -0.1316  0.5735  1.0000  -1.7861   0.0000   0.0000   0.0000   0.3460
   8.000   1.2779   0.04246   0.03484  -0.1291  0.5512  1.0000  -1.9332   0.0000   0.0000   0.0000   0.3387
   8.500   1.3685   0.03794   0.03045  -0.1290  0.5309  1.0000  -2.1651   0.0000   0.0000   0.0000   0.3312
   9.000   1.4640   0.03409   0.02663  -0.1304  0.5011  1.0000  -2.4272   0.0000   0.0000   0.0000   0.3251
   9.500   1.5409   0.03269   0.02501  -0.1310  0.4632  1.0000  -2.6901   0.0000   0.0000   0.0000   0.3202
  10.000   1.5565   0.03451   0.02687  -0.1251  0.4265  1.0000  -2.8453   0.0000   0.0000   0.0000   0.3147


