xflr5 v6.61

 Calculated polar for: peg24_40_revT

 1 1 Reynolds number fixed          Mach number fixed         

 xtrf =   1.000 (top)        1.000 (bottom)
 Mach =   0.000     Re =     0.490 e 6     Ncrit =   9.000

  alpha     CL        CD       CDp       Cm    Top Xtr Bot Xtr   Cpmin    Chinge    XCp    
 ------- -------- --------- --------- -------- ------- ------- -------- --------- ---------
   0.000   0.4454   0.00733   0.00256  -0.1006  0.7267  0.7432  -0.7104   0.0000   0.0000   0.0000   0.4745
   0.500   0.5000   0.00724   0.00258  -0.0999  0.7133  0.7908  -0.7615   0.0000   0.0000   0.0000   0.4479
   1.000   0.5536   0.00724   0.00260  -0.0990  0.6990  0.8312  -0.8155   0.0000   0.0000   0.0000   0.4263
   1.500   0.6059   0.00718   0.00261  -0.0978  0.6822  0.8716  -0.8725   0.0000   0.0000   0.0000   0.4083
   2.000   0.6554   0.00713   0.00264  -0.0959  0.6648  0.9167  -0.9311   0.0000   0.0000   0.0000   0.3928
   2.500   0.7181   0.00708   0.00258  -0.0970  0.6444  1.0000  -1.0064   0.0000   0.0000   0.0000   0.3810
   3.000   0.7748   0.00727   0.00266  -0.0973  0.6199  1.0000  -1.0824   0.0000   0.0000   0.0000   0.3710
   3.500   0.8302   0.00751   0.00280  -0.0973  0.5913  1.0000  -1.1703   0.0000   0.0000   0.0000   0.3621
   4.000   0.8844   0.00783   0.00300  -0.0971  0.5588  1.0000  -1.2687   0.0000   0.0000   0.0000   0.3542
   4.500   0.9366   0.00828   0.00328  -0.0965  0.5210  1.0000  -1.3838   0.0000   0.0000   0.0000   0.3469
   5.000   0.9888   0.00876   0.00364  -0.0959  0.4827  1.0000  -1.5133   0.0000   0.0000   0.0000   0.3404
   5.500   1.0386   0.00939   0.00408  -0.0951  0.4402  1.0000  -1.6708   0.0000   0.0000   0.0000   0.3343
   6.000   1.0889   0.01000   0.00458  -0.0943  0.4001  1.0000  -1.8712   0.0000   0.0000   0.0000   0.3288
   6.500   1.1369   0.01076   0.00517  -0.0932  0.3575  1.0000  -2.1958   0.0000   0.0000   0.0000   0.3236
   7.000   1.1833   0.01162   0.00585  -0.0920  0.3140  1.0000  -2.5312   0.0000   0.0000   0.0000   0.3186
   7.500   1.2291   0.01249   0.00658  -0.0907  0.2727  1.0000  -2.8794   0.0000   0.0000   0.0000   0.3140
   8.000   1.2719   0.01354   0.00744  -0.0890  0.2305  1.0000  -3.2310   0.0000   0.0000   0.0000   0.3095
   8.500   1.3113   0.01475   0.00845  -0.0868  0.1870  1.0000  -3.5830   0.0000   0.0000   0.0000   0.3051
   9.000   1.3468   0.01615   0.00962  -0.0842  0.1452  1.0000  -3.9307   0.0000   0.0000   0.0000   0.3007
   9.500   1.3773   0.01760   0.01091  -0.0808  0.1115  1.0000  -4.2684   0.0000   0.0000   0.0000   0.2961
  10.000   1.4051   0.01920   0.01242  -0.0773  0.0871  1.0000  -4.6083   0.0000   0.0000   0.0000   0.2917


