xflr5 v6.61

 Calculated polar for: peg24_20_revT

 1 1 Reynolds number fixed          Mach number fixed         

 xtrf =   1.000 (top)        1.000 (bottom)
 Mach =   0.000     Re =     0.475 e 6     Ncrit =   9.000

  alpha     CL        CD       CDp       Cm    Top Xtr Bot Xtr   Cpmin    Chinge    XCp    
 ------- -------- --------- --------- -------- ------- ------- -------- --------- ---------
   0.000   0.3489   0.00704   0.00237  -0.0766  0.7269  0.7930  -0.6407   0.0000   0.0000   0.0000   0.4684
   0.500   0.4026   0.00698   0.00238  -0.0757  0.7107  0.8279  -0.6911   0.0000   0.0000   0.0000   0.4363
   1.000   0.4551   0.00697   0.00240  -0.0745  0.6927  0.8623  -0.7448   0.0000   0.0000   0.0000   0.4113
   1.500   0.5062   0.00700   0.00241  -0.0730  0.6730  0.8970  -0.8005   0.0000   0.0000   0.0000   0.3913
   2.000   0.5558   0.00698   0.00241  -0.0711  0.6508  0.9368  -0.8611   0.0000   0.0000   0.0000   0.3745
   2.500   0.6211   0.00703   0.00241  -0.0728  0.6252  0.9794  -0.9382   0.0000   0.0000   0.0000   0.3634
   3.000   0.6847   0.00721   0.00248  -0.0747  0.5953  1.0000  -1.0257   0.0000   0.0000   0.0000   0.3548
   3.500   0.7389   0.00748   0.00264  -0.0745  0.5631  1.0000  -1.1163   0.0000   0.0000   0.0000   0.3462
   4.000   0.7920   0.00785   0.00286  -0.0741  0.5262  1.0000  -1.2285   0.0000   0.0000   0.0000   0.3384
   4.500   0.8445   0.00828   0.00316  -0.0737  0.4890  1.0000  -1.3572   0.0000   0.0000   0.0000   0.3315
   5.000   0.8961   0.00880   0.00351  -0.0731  0.4463  1.0000  -1.5293   0.0000   0.0000   0.0000   0.3253
   5.500   0.9477   0.00933   0.00394  -0.0725  0.4076  1.0000  -1.8419   0.0000   0.0000   0.0000   0.3197
   6.000   0.9973   0.01002   0.00445  -0.0717  0.3621  1.0000  -2.1841   0.0000   0.0000   0.0000   0.3146
   6.500   1.0464   0.01076   0.00501  -0.0708  0.3163  1.0000  -2.5414   0.0000   0.0000   0.0000   0.3098
   7.000   1.0936   0.01165   0.00570  -0.0698  0.2658  1.0000  -2.9084   0.0000   0.0000   0.0000   0.3053
   7.500   1.1389   0.01269   0.00650  -0.0685  0.2129  1.0000  -3.2827   0.0000   0.0000   0.0000   0.3010
   8.000   1.1825   0.01384   0.00741  -0.0670  0.1635  1.0000  -3.6636   0.0000   0.0000   0.0000   0.2970
   8.500   1.2231   0.01519   0.00852  -0.0653  0.1173  1.0000  -4.0459   0.0000   0.0000   0.0000   0.2930
   9.000   1.2620   0.01658   0.00974  -0.0632  0.0839  1.0000  -4.4465   0.0000   0.0000   0.0000   0.2890
   9.500   1.2983   0.01804   0.01109  -0.0609  0.0608  1.0000  -4.8446   0.0000   0.0000   0.0000   0.2851
  10.000   1.3303   0.01953   0.01254  -0.0579  0.0445  1.0000  -5.2281   0.0000   0.0000   0.0000   0.2810


