xflr5 v6.61

 Calculated polar for: peg24_45_revT

 1 1 Reynolds number fixed          Mach number fixed         

 xtrf =   1.000 (top)        1.000 (bottom)
 Mach =   0.000     Re =     0.295 e 6     Ncrit =   9.000

  alpha     CL        CD       CDp       Cm    Top Xtr Bot Xtr   Cpmin    Chinge    XCp    
 ------- -------- --------- --------- -------- ------- ------- -------- --------- ---------
   0.000   0.4582   0.00964   0.00449  -0.1051  0.7596  0.8002  -0.7192   0.0000   0.0000   0.0000   0.4782
   0.500   0.5085   0.00961   0.00453  -0.1033  0.7473  0.8501  -0.7670   0.0000   0.0000   0.0000   0.4513
   1.000   0.5556   0.00940   0.00437  -0.1005  0.7337  0.9011  -0.8165   0.0000   0.0000   0.0000   0.4284
   1.500   0.6122   0.00922   0.00422  -0.0999  0.7194  0.9661  -0.8763   0.0000   0.0000   0.0000   0.4102
   2.000   0.6791   0.00916   0.00401  -0.1022  0.7033  1.0000  -0.9457   0.0000   0.0000   0.0000   0.3970
   2.500   0.7359   0.00923   0.00404  -0.1025  0.6848  1.0000  -1.0155   0.0000   0.0000   0.0000   0.3853
   3.000   0.7924   0.00933   0.00407  -0.1026  0.6651  1.0000  -1.0905   0.0000   0.0000   0.0000   0.3749
   3.500   0.8481   0.00946   0.00412  -0.1025  0.6428  1.0000  -1.1771   0.0000   0.0000   0.0000   0.3657
   4.000   0.9024   0.00964   0.00423  -0.1021  0.6158  1.0000  -1.2718   0.0000   0.0000   0.0000   0.3575
   4.500   0.9555   0.00991   0.00442  -0.1015  0.5851  1.0000  -1.3844   0.0000   0.0000   0.0000   0.3500
   5.000   1.0068   0.01032   0.00468  -0.1006  0.5490  1.0000  -1.5070   0.0000   0.0000   0.0000   0.3432
   5.500   1.0570   0.01083   0.00509  -0.0996  0.5111  1.0000  -1.6551   0.0000   0.0000   0.0000   0.3369
   6.000   1.1044   0.01152   0.00561  -0.0982  0.4680  1.0000  -1.8282   0.0000   0.0000   0.0000   0.3310
   6.500   1.1514   0.01224   0.00623  -0.0969  0.4262  1.0000  -2.0603   0.0000   0.0000   0.0000   0.3256
   7.000   1.1956   0.01313   0.00698  -0.0952  0.3839  1.0000  -2.3766   0.0000   0.0000   0.0000   0.3204
   7.500   1.2377   0.01413   0.00782  -0.0932  0.3405  1.0000  -2.6997   0.0000   0.0000   0.0000   0.3154
   8.000   1.2782   0.01518   0.00876  -0.0911  0.2992  1.0000  -3.0302   0.0000   0.0000   0.0000   0.3107
   8.500   1.3140   0.01646   0.00990  -0.0883  0.2585  1.0000  -3.3556   0.0000   0.0000   0.0000   0.3059
   9.000   1.3459   0.01779   0.01112  -0.0851  0.2195  1.0000  -3.6770   0.0000   0.0000   0.0000   0.3012
   9.500   1.3730   0.01939   0.01260  -0.0813  0.1829  1.0000  -3.9873   0.0000   0.0000   0.0000   0.2965
  10.000   1.3938   0.02145   0.01450  -0.0772  0.1467  1.0000  -4.2787   0.0000   0.0000   0.0000   0.2919


