xflr5 v6.61

 Calculated polar for: peg24_30_revT

 1 1 Reynolds number fixed          Mach number fixed         

 xtrf =   1.000 (top)        1.000 (bottom)
 Mach =   0.000     Re =     0.350 e 6     Ncrit =   9.000

  alpha     CL        CD       CDp       Cm    Top Xtr Bot Xtr   Cpmin    Chinge    XCp    
 ------- -------- --------- --------- -------- ------- ------- -------- --------- ---------
   0.000   0.3908   0.00834   0.00343  -0.0876  0.7495  0.8116  -0.6703   0.0000   0.0000   0.0000   0.4730
   0.500   0.4426   0.00825   0.00337  -0.0861  0.7345  0.8526  -0.7200   0.0000   0.0000   0.0000   0.4427
   1.000   0.4916   0.00819   0.00336  -0.0839  0.7192  0.8938  -0.7710   0.0000   0.0000   0.0000   0.4183
   1.500   0.5416   0.00810   0.00323  -0.0818  0.7022  0.9389  -0.8257   0.0000   0.0000   0.0000   0.3982
   2.000   0.6142   0.00799   0.00312  -0.0851  0.6824  0.9923  -0.9004   0.0000   0.0000   0.0000   0.3851
   2.500   0.6721   0.00809   0.00314  -0.0858  0.6608  1.0000  -0.9721   0.0000   0.0000   0.0000   0.3738
   3.000   0.7277   0.00825   0.00320  -0.0858  0.6366  1.0000  -1.0505   0.0000   0.0000   0.0000   0.3636
   3.500   0.7822   0.00846   0.00331  -0.0856  0.6083  1.0000  -1.1366   0.0000   0.0000   0.0000   0.3546
   4.000   0.8357   0.00876   0.00348  -0.0851  0.5766  1.0000  -1.2432   0.0000   0.0000   0.0000   0.3465
   4.500   0.8881   0.00915   0.00375  -0.0845  0.5408  1.0000  -1.3600   0.0000   0.0000   0.0000   0.3393
   5.000   0.9396   0.00962   0.00410  -0.0838  0.5021  1.0000  -1.5050   0.0000   0.0000   0.0000   0.3328
   5.500   0.9896   0.01020   0.00454  -0.0829  0.4599  1.0000  -1.6858   0.0000   0.0000   0.0000   0.3268
   6.000   1.0385   0.01087   0.00507  -0.0819  0.4184  1.0000  -1.9946   0.0000   0.0000   0.0000   0.3213
   6.500   1.0866   0.01160   0.00567  -0.0808  0.3747  1.0000  -2.3310   0.0000   0.0000   0.0000   0.3162
   7.000   1.1328   0.01245   0.00638  -0.0795  0.3303  1.0000  -2.6766   0.0000   0.0000   0.0000   0.3114
   7.500   1.1768   0.01345   0.00720  -0.0779  0.2856  1.0000  -3.0291   0.0000   0.0000   0.0000   0.3068
   8.000   1.2191   0.01455   0.00812  -0.0762  0.2399  1.0000  -3.3883   0.0000   0.0000   0.0000   0.3024
   8.500   1.2579   0.01584   0.00923  -0.0740  0.1925  1.0000  -3.7463   0.0000   0.0000   0.0000   0.2981
   9.000   1.2927   0.01735   0.01051  -0.0714  0.1454  1.0000  -4.0980   0.0000   0.0000   0.0000   0.2938
   9.500   1.3214   0.01905   0.01200  -0.0680  0.1072  1.0000  -4.4318   0.0000   0.0000   0.0000   0.2893
  10.000   1.3484   0.02079   0.01367  -0.0645  0.0816  1.0000  -4.7752   0.0000   0.0000   0.0000   0.2849


