xflr5 v6.61

 Calculated polar for: peg24_50_revT

 1 1 Reynolds number fixed          Mach number fixed         

 xtrf =   1.000 (top)        1.000 (bottom)
 Mach =   0.000     Re =     0.350 e 6     Ncrit =   9.000

  alpha     CL        CD       CDp       Cm    Top Xtr Bot Xtr   Cpmin    Chinge    XCp    
 ------- -------- --------- --------- -------- ------- ------- -------- --------- ---------
   0.000   0.4868   0.00894   0.00390  -0.1117  0.7479  0.7626  -0.7411   0.0000   0.0000   0.0000   0.4783
   0.500   0.5398   0.00883   0.00386  -0.1105  0.7359  0.8133  -0.7900   0.0000   0.0000   0.0000   0.4528
   1.000   0.5906   0.00876   0.00385  -0.1088  0.7233  0.8615  -0.8420   0.0000   0.0000   0.0000   0.4317
   1.500   0.6380   0.00858   0.00375  -0.1062  0.7092  0.9154  -0.8964   0.0000   0.0000   0.0000   0.4134
   2.000   0.7020   0.00844   0.00360  -0.1075  0.6935  1.0000  -0.9634   0.0000   0.0000   0.0000   0.3996
   2.500   0.7608   0.00852   0.00354  -0.1082  0.6763  1.0000  -1.0346   0.0000   0.0000   0.0000   0.3881
   3.000   0.8173   0.00862   0.00361  -0.1084  0.6564  1.0000  -1.1087   0.0000   0.0000   0.0000   0.3779
   3.500   0.8730   0.00877   0.00370  -0.1083  0.6337  1.0000  -1.1950   0.0000   0.0000   0.0000   0.3689
   4.000   0.9275   0.00899   0.00383  -0.1080  0.6067  1.0000  -1.2870   0.0000   0.0000   0.0000   0.3607
   4.500   0.9806   0.00931   0.00403  -0.1075  0.5760  1.0000  -1.3975   0.0000   0.0000   0.0000   0.3533
   5.000   1.0320   0.00974   0.00434  -0.1067  0.5400  1.0000  -1.5181   0.0000   0.0000   0.0000   0.3465
   5.500   1.0819   0.01028   0.00475  -0.1057  0.5009  1.0000  -1.6588   0.0000   0.0000   0.0000   0.3402
   6.000   1.1299   0.01095   0.00527  -0.1044  0.4587  1.0000  -1.8218   0.0000   0.0000   0.0000   0.3343
   6.500   1.1758   0.01175   0.00590  -0.1030  0.4165  1.0000  -2.0149   0.0000   0.0000   0.0000   0.3288
   7.000   1.2210   0.01258   0.00662  -0.1014  0.3747  1.0000  -2.3084   0.0000   0.0000   0.0000   0.3237
   7.500   1.2630   0.01358   0.00746  -0.0994  0.3330  1.0000  -2.6260   0.0000   0.0000   0.0000   0.3187
   8.000   1.3034   0.01463   0.00838  -0.0973  0.2924  1.0000  -2.9512   0.0000   0.0000   0.0000   0.3139
   8.500   1.3404   0.01582   0.00945  -0.0947  0.2536  1.0000  -3.2765   0.0000   0.0000   0.0000   0.3092
   9.000   1.3712   0.01717   0.01065  -0.0912  0.2164  1.0000  -3.5899   0.0000   0.0000   0.0000   0.3043
   9.500   1.3996   0.01868   0.01206  -0.0876  0.1819  1.0000  -3.9024   0.0000   0.0000   0.0000   0.2996
  10.000   1.4219   0.02063   0.01386  -0.0837  0.1472  1.0000  -4.1982   0.0000   0.0000   0.0000   0.2951


