xflr5 v6.61

 Calculated polar for: peg24_45_revT

 1 1 Reynolds number fixed          Mach number fixed         

 xtrf =   1.000 (top)        1.000 (bottom)
 Mach =   0.000     Re =     0.475 e 6     Ncrit =   9.000

  alpha     CL        CD       CDp       Cm    Top Xtr Bot Xtr   Cpmin    Chinge    XCp    
 ------- -------- --------- --------- -------- ------- ------- -------- --------- ---------
   0.000   0.4690   0.00756   0.00271  -0.1064  0.7285  0.7335  -0.7279   0.0000   0.0000   0.0000   0.4757
   0.500   0.5233   0.00745   0.00275  -0.1057  0.7161  0.7839  -0.7785   0.0000   0.0000   0.0000   0.4501
   1.000   0.5774   0.00746   0.00275  -0.1049  0.7021  0.8266  -0.8327   0.0000   0.0000   0.0000   0.4291
   1.500   0.6293   0.00736   0.00278  -0.1036  0.6867  0.8691  -0.8898   0.0000   0.0000   0.0000   0.4116
   2.000   0.6785   0.00731   0.00277  -0.1016  0.6704  0.9174  -0.9478   0.0000   0.0000   0.0000   0.3962
   2.500   0.7405   0.00726   0.00269  -0.1026  0.6504  1.0000  -1.0221   0.0000   0.0000   0.0000   0.3845
   3.000   0.7977   0.00741   0.00278  -0.1030  0.6279  1.0000  -1.0977   0.0000   0.0000   0.0000   0.3745
   3.500   0.8531   0.00765   0.00290  -0.1030  0.6008  1.0000  -1.1849   0.0000   0.0000   0.0000   0.3656
   4.000   0.9072   0.00797   0.00310  -0.1027  0.5705  1.0000  -1.2802   0.0000   0.0000   0.0000   0.3575
   4.500   0.9603   0.00835   0.00337  -0.1023  0.5340  1.0000  -1.3938   0.0000   0.0000   0.0000   0.3503
   5.000   1.0116   0.00887   0.00373  -0.1016  0.4962  1.0000  -1.5168   0.0000   0.0000   0.0000   0.3436
   5.500   1.0620   0.00944   0.00416  -0.1008  0.4537  1.0000  -1.6674   0.0000   0.0000   0.0000   0.3375
   6.000   1.1107   0.01014   0.00469  -0.0997  0.4126  1.0000  -1.8453   0.0000   0.0000   0.0000   0.3318
   6.500   1.1589   0.01086   0.00527  -0.0987  0.3710  1.0000  -2.1084   0.0000   0.0000   0.0000   0.3265
   7.000   1.2052   0.01169   0.00595  -0.0974  0.3292  1.0000  -2.4359   0.0000   0.0000   0.0000   0.3216
   7.500   1.2491   0.01266   0.00673  -0.0958  0.2870  1.0000  -2.7700   0.0000   0.0000   0.0000   0.3168
   8.000   1.2924   0.01363   0.00756  -0.0941  0.2475  1.0000  -3.1156   0.0000   0.0000   0.0000   0.3122
   8.500   1.3316   0.01479   0.00856  -0.0919  0.2076  1.0000  -3.4597   0.0000   0.0000   0.0000   0.3077
   9.000   1.3656   0.01616   0.00972  -0.0890  0.1667  1.0000  -3.7951   0.0000   0.0000   0.0000   0.3031
   9.500   1.3954   0.01762   0.01101  -0.0855  0.1315  1.0000  -4.1237   0.0000   0.0000   0.0000   0.2985
  10.000   1.4213   0.01932   0.01260  -0.0817  0.1029  1.0000  -4.4439   0.0000   0.0000   0.0000   0.2940


