xflr5 v6.61

 Calculated polar for: peg24_55_revT

 1 1 Reynolds number fixed          Mach number fixed         

 xtrf =   1.000 (top)        1.000 (bottom)
 Mach =   0.000     Re =     0.215 e 6     Ncrit =   9.000

  alpha     CL        CD       CDp       Cm    Top Xtr Bot Xtr   Cpmin    Chinge    XCp    
 ------- -------- --------- --------- -------- ------- ------- -------- --------- ---------
   0.000   0.4907   0.01262   0.00713  -0.1157  0.7802  0.8186  -0.7425   0.0000   0.0000   0.0000   0.4848
   0.500   0.5328   0.01243   0.00706  -0.1119  0.7661  0.8806  -0.7837   0.0000   0.0000   0.0000   0.4583
   1.000   0.5884   0.01201   0.00660  -0.1103  0.7561  0.9601  -0.8390   0.0000   0.0000   0.0000   0.4352
   1.500   0.6531   0.01199   0.00653  -0.1126  0.7407  1.0000  -0.9022   0.0000   0.0000   0.0000   0.4195
   2.000   0.7159   0.01188   0.00621  -0.1136  0.7285  1.0000  -0.9681   0.0000   0.0000   0.0000   0.4052
   2.500   0.7713   0.01189   0.00620  -0.1136  0.7109  1.0000  -1.0351   0.0000   0.0000   0.0000   0.3932
   3.000   0.8288   0.01188   0.00611  -0.1136  0.6944  1.0000  -1.1107   0.0000   0.0000   0.0000   0.3825
   3.500   0.8867   0.01180   0.00592  -0.1136  0.6762  1.0000  -1.1958   0.0000   0.0000   0.0000   0.3729
   4.000   0.9407   0.01185   0.00598  -0.1130  0.6539  1.0000  -1.2857   0.0000   0.0000   0.0000   0.3644
   4.500   0.9947   0.01193   0.00602  -0.1124  0.6284  1.0000  -1.3926   0.0000   0.0000   0.0000   0.3566
   5.000   1.0477   0.01211   0.00612  -0.1116  0.5996  1.0000  -1.5122   0.0000   0.0000   0.0000   0.3496
   5.500   1.0981   0.01245   0.00640  -0.1104  0.5647  1.0000  -1.6451   0.0000   0.0000   0.0000   0.3430
   6.000   1.1466   0.01295   0.00680  -0.1090  0.5263  1.0000  -1.7984   0.0000   0.0000   0.0000   0.3369
   6.500   1.1924   0.01364   0.00736  -0.1073  0.4844  1.0000  -1.9743   0.0000   0.0000   0.0000   0.3311
   7.000   1.2354   0.01453   0.00808  -0.1052  0.4419  1.0000  -2.1722   0.0000   0.0000   0.0000   0.3256
   7.500   1.2762   0.01549   0.00896  -0.1029  0.3995  1.0000  -2.4686   0.0000   0.0000   0.0000   0.3204
   8.000   1.3128   0.01667   0.00998  -0.1000  0.3580  1.0000  -2.7699   0.0000   0.0000   0.0000   0.3153
   8.500   1.3461   0.01793   0.01117  -0.0968  0.3176  1.0000  -3.0707   0.0000   0.0000   0.0000   0.3103
   9.000   1.3729   0.01937   0.01251  -0.0927  0.2803  1.0000  -3.3579   0.0000   0.0000   0.0000   0.3051
   9.500   1.3960   0.02106   0.01412  -0.0884  0.2437  1.0000  -3.6386   0.0000   0.0000   0.0000   0.3001
  10.000   1.4140   0.02319   0.01616  -0.0840  0.2098  1.0000  -3.9054   0.0000   0.0000   0.0000   0.2954


