xflr5 v6.61

 Calculated polar for: peg24_75_revT

 1 1 Reynolds number fixed          Mach number fixed         

 xtrf =   1.000 (top)        1.000 (bottom)
 Mach =   0.000     Re =     0.460 e 6     Ncrit =   9.000

  alpha     CL        CD       CDp       Cm    Top Xtr Bot Xtr   Cpmin    Chinge    XCp    
 ------- -------- --------- --------- -------- ------- ------- -------- --------- ---------
   0.000   0.6111   0.00857   0.00334  -0.1413  0.7293  0.6152  -0.8374   0.0000   0.0000   0.0000   0.4798
   0.500   0.6665   0.00842   0.00344  -0.1410  0.7205  0.6937  -0.8861   0.0000   0.0000   0.0000   0.4595
   1.000   0.7218   0.00829   0.00343  -0.1405  0.7095  0.7578  -0.9402   0.0000   0.0000   0.0000   0.4419
   1.500   0.7760   0.00828   0.00350  -0.1397  0.6985  0.8134  -0.9984   0.0000   0.0000   0.0000   0.4267
   2.000   0.8272   0.00813   0.00349  -0.1383  0.6853  0.8687  -1.0587   0.0000   0.0000   0.0000   0.4133
   2.500   0.8787   0.00794   0.00339  -0.1368  0.6717  1.0000  -1.1212   0.0000   0.0000   0.0000   0.4012
   3.000   0.9365   0.00803   0.00342  -0.1372  0.6552  1.0000  -1.1967   0.0000   0.0000   0.0000   0.3915
   3.500   0.9931   0.00819   0.00354  -0.1374  0.6372  1.0000  -1.2751   0.0000   0.0000   0.0000   0.3827
   4.000   1.0481   0.00840   0.00366  -0.1373  0.6145  1.0000  -1.3672   0.0000   0.0000   0.0000   0.3747
   4.500   1.1018   0.00868   0.00387  -0.1369  0.5883  1.0000  -1.4639   0.0000   0.0000   0.0000   0.3673
   5.000   1.1531   0.00910   0.00415  -0.1361  0.5538  1.0000  -1.5755   0.0000   0.0000   0.0000   0.3605
   5.500   1.2021   0.00967   0.00455  -0.1350  0.5177  1.0000  -1.6947   0.0000   0.0000   0.0000   0.3541
   6.000   1.2496   0.01032   0.00507  -0.1337  0.4764  1.0000  -1.8289   0.0000   0.0000   0.0000   0.3481
   6.500   1.2939   0.01114   0.00570  -0.1319  0.4356  1.0000  -1.9749   0.0000   0.0000   0.0000   0.3424
   7.000   1.3365   0.01203   0.00644  -0.1299  0.3940  1.0000  -2.1338   0.0000   0.0000   0.0000   0.3369
   7.500   1.3761   0.01303   0.00728  -0.1275  0.3549  1.0000  -2.3131   0.0000   0.0000   0.0000   0.3316
   8.000   1.4123   0.01410   0.00823  -0.1245  0.3173  1.0000  -2.5100   0.0000   0.0000   0.0000   0.3264
   9.000   1.4723   0.01665   0.01055  -0.1171  0.2528  1.0000  -3.0162   0.0000   0.0000   0.0000   0.3162
   9.500   1.4987   0.01824   0.01204  -0.1133  0.2221  1.0000  -3.2934   0.0000   0.0000   0.0000   0.3115
  10.000   1.5221   0.02013   0.01384  -0.1095  0.1934  1.0000  -3.5678   0.0000   0.0000   0.0000   0.3071


