xflr5 v6.61

 Calculated polar for: peg24_60_revT

 1 1 Reynolds number fixed          Mach number fixed         

 xtrf =   1.000 (top)        1.000 (bottom)
 Mach =   0.000     Re =     0.460 e 6     Ncrit =   9.000

  alpha     CL        CD       CDp       Cm    Top Xtr Bot Xtr   Cpmin    Chinge    XCp    
 ------- -------- --------- --------- -------- ------- ------- -------- --------- ---------
   0.000   0.5402   0.00805   0.00304  -0.1240  0.7305  0.6833  -0.7825   0.0000   0.0000   0.0000   0.4782
   0.500   0.5949   0.00796   0.00313  -0.1234  0.7197  0.7486  -0.8310   0.0000   0.0000   0.0000   0.4555
   1.000   0.6495   0.00788   0.00311  -0.1227  0.7076  0.7999  -0.8859   0.0000   0.0000   0.0000   0.4364
   1.500   0.7025   0.00784   0.00316  -0.1217  0.6947  0.8482  -0.9439   0.0000   0.0000   0.0000   0.4201
   2.000   0.7519   0.00772   0.00311  -0.1198  0.6797  0.9014  -1.0017   0.0000   0.0000   0.0000   0.4056
   2.500   0.8093   0.00760   0.00306  -0.1197  0.6634  1.0000  -1.0702   0.0000   0.0000   0.0000   0.3937
   3.000   0.8668   0.00775   0.00311  -0.1201  0.6453  1.0000  -1.1464   0.0000   0.0000   0.0000   0.3837
   3.500   0.9227   0.00795   0.00320  -0.1202  0.6224  1.0000  -1.2293   0.0000   0.0000   0.0000   0.3748
   4.000   0.9773   0.00820   0.00337  -0.1200  0.5958  1.0000  -1.3208   0.0000   0.0000   0.0000   0.3668
   4.500   1.0307   0.00853   0.00361  -0.1196  0.5645  1.0000  -1.4262   0.0000   0.0000   0.0000   0.3594
   5.000   1.0820   0.00899   0.00394  -0.1188  0.5272  1.0000  -1.5432   0.0000   0.0000   0.0000   0.3526
   5.500   1.1316   0.00958   0.00437  -0.1178  0.4885  1.0000  -1.6725   0.0000   0.0000   0.0000   0.3463
   6.000   1.1794   0.01027   0.00489  -0.1166  0.4457  1.0000  -1.8224   0.0000   0.0000   0.0000   0.3404
   6.500   1.2261   0.01103   0.00550  -0.1152  0.4050  1.0000  -1.9917   0.0000   0.0000   0.0000   0.3349
   7.000   1.2698   0.01194   0.00624  -0.1135  0.3632  1.0000  -2.1882   0.0000   0.0000   0.0000   0.3296
   7.500   1.3132   0.01283   0.00700  -0.1117  0.3240  1.0000  -2.4693   0.0000   0.0000   0.0000   0.3246
   8.500   1.3897   0.01500   0.00890  -0.1067  0.2496  1.0000  -3.0951   0.0000   0.0000   0.0000   0.3149
   9.000   1.4199   0.01632   0.01006  -0.1031  0.2154  1.0000  -3.3967   0.0000   0.0000   0.0000   0.3100
   9.500   1.4488   0.01776   0.01140  -0.0995  0.1845  1.0000  -3.7025   0.0000   0.0000   0.0000   0.3053
  10.000   1.4741   0.01949   0.01304  -0.0958  0.1537  1.0000  -4.0025   0.0000   0.0000   0.0000   0.3008


