xflr5 v6.61

 Calculated polar for: peg24_80_revT

 1 1 Reynolds number fixed          Mach number fixed         

 xtrf =   1.000 (top)        1.000 (bottom)
 Mach =   0.000     Re =     0.095 e 6     Ncrit =   9.000

  alpha     CL        CD       CDp       Cm    Top Xtr Bot Xtr   Cpmin    Chinge    XCp    
 ------- -------- --------- --------- -------- ------- ------- -------- --------- ---------
   0.000   0.3998   0.03251   0.02566  -0.1274  0.8172  0.7999  -0.6688   0.0000   0.0000   0.0000   0.5688
   1.000   0.5071   0.03323   0.02614  -0.1268  0.7877  1.0000  -0.7557   0.0000   0.0000   0.0000   0.4983
   2.000   0.6384   0.03422   0.02673  -0.1303  0.7586  1.0000  -0.8745   0.0000   0.0000   0.0000   0.4508
   3.000   0.7702   0.03418   0.02650  -0.1321  0.7303  1.0000  -1.0135   0.0000   0.0000   0.0000   0.4168
   4.000   0.8530   0.03601   0.02833  -0.1282  0.6870  1.0000  -1.1295   0.0000   0.0000   0.0000   0.3942
   4.500   0.9438   0.03335   0.02570  -0.1299  0.6795  1.0000  -1.2497   0.0000   0.0000   0.0000   0.3810
   5.500   1.0877   0.02985   0.02234  -0.1299  0.6516  1.0000  -1.4923   0.0000   0.0000   0.0000   0.3614
   6.000   1.1404   0.02917   0.02178  -0.1279  0.6293  1.0000  -1.6094   0.0000   0.0000   0.0000   0.3536
   6.500   1.2043   0.02770   0.02041  -0.1270  0.6073  1.0000  -1.7591   0.0000   0.0000   0.0000   0.3461
   7.000   1.2721   0.02609   0.01885  -0.1266  0.5821  1.0000  -1.9381   0.0000   0.0000   0.0000   0.3394
   7.500   1.3372   0.02486   0.01760  -0.1260  0.5504  1.0000  -2.1325   0.0000   0.0000   0.0000   0.3334
   8.000   1.3887   0.02482   0.01746  -0.1241  0.5130  1.0000  -2.3288   0.0000   0.0000   0.0000   0.3277
   8.500   1.4289   0.02545   0.01803  -0.1209  0.4716  1.0000  -2.5298   0.0000   0.0000   0.0000   0.3222
   9.000   1.4635   0.02662   0.01908  -0.1173  0.4306  1.0000  -2.7445   0.0000   0.0000   0.0000   0.3169
   9.500   1.4920   0.02808   0.02040  -0.1130  0.3909  1.0000  -2.9828   0.0000   0.0000   0.0000   0.3117
  10.000   1.5112   0.02996   0.02222  -0.1077  0.3540  1.0000  -3.2193   0.0000   0.0000   0.0000   0.3064


