xflr5 v6.61

 Calculated polar for: peg24_45_revT

 1 1 Reynolds number fixed          Mach number fixed         

 xtrf =   1.000 (top)        1.000 (bottom)
 Mach =   0.000     Re =     0.395 e 6     Ncrit =   9.000

  alpha     CL        CD       CDp       Cm    Top Xtr Bot Xtr   Cpmin    Chinge    XCp    
 ------- -------- --------- --------- -------- ------- ------- -------- --------- ---------
   0.000   0.4656   0.00821   0.00331  -0.1060  0.7404  0.7600  -0.7251   0.0000   0.0000   0.0000   0.4765
   0.500   0.5195   0.00819   0.00329  -0.1051  0.7278  0.8076  -0.7756   0.0000   0.0000   0.0000   0.4503
   1.000   0.5714   0.00808   0.00330  -0.1037  0.7142  0.8526  -0.8280   0.0000   0.0000   0.0000   0.4291
   1.500   0.6210   0.00802   0.00325  -0.1017  0.6997  0.8993  -0.8838   0.0000   0.0000   0.0000   0.4108
   2.000   0.6751   0.00783   0.00314  -0.1007  0.6827  0.9639  -0.9449   0.0000   0.0000   0.0000   0.3956
   2.500   0.7392   0.00789   0.00313  -0.1026  0.6640  1.0000  -1.0201   0.0000   0.0000   0.0000   0.3847
   3.000   0.7960   0.00804   0.00318  -0.1028  0.6433  1.0000  -1.0955   0.0000   0.0000   0.0000   0.3746
   3.500   0.8515   0.00823   0.00328  -0.1028  0.6180  1.0000  -1.1825   0.0000   0.0000   0.0000   0.3656
   4.000   0.9058   0.00849   0.00345  -0.1025  0.5889  1.0000  -1.2777   0.0000   0.0000   0.0000   0.3575
   4.500   0.9586   0.00885   0.00369  -0.1019  0.5542  1.0000  -1.3906   0.0000   0.0000   0.0000   0.3501
   5.000   1.0098   0.00935   0.00403  -0.1011  0.5176  1.0000  -1.5133   0.0000   0.0000   0.0000   0.3434
   5.500   1.0598   0.00991   0.00446  -0.1002  0.4755  1.0000  -1.6627   0.0000   0.0000   0.0000   0.3372
   6.000   1.1084   0.01058   0.00499  -0.0992  0.4346  1.0000  -1.8393   0.0000   0.0000   0.0000   0.3315
   6.500   1.1555   0.01135   0.00560  -0.0979  0.3926  1.0000  -2.0891   0.0000   0.0000   0.0000   0.3261
   7.000   1.2014   0.01218   0.00630  -0.0965  0.3501  1.0000  -2.4135   0.0000   0.0000   0.0000   0.3211
   7.500   1.2446   0.01316   0.00711  -0.0948  0.3083  1.0000  -2.7433   0.0000   0.0000   0.0000   0.3162
   8.000   1.2862   0.01420   0.00800  -0.0928  0.2668  1.0000  -3.0810   0.0000   0.0000   0.0000   0.3116
   8.500   1.3253   0.01534   0.00902  -0.0906  0.2280  1.0000  -3.4221   0.0000   0.0000   0.0000   0.3071
   9.000   1.3579   0.01672   0.01021  -0.0875  0.1886  1.0000  -3.7501   0.0000   0.0000   0.0000   0.3024
   9.500   1.3864   0.01825   0.01158  -0.0838  0.1507  1.0000  -4.0711   0.0000   0.0000   0.0000   0.2977
  10.000   1.4113   0.02005   0.01326  -0.0801  0.1183  1.0000  -4.3841   0.0000   0.0000   0.0000   0.2932


