xflr5 v6.61

 Calculated polar for: peg24_0_revT

 1 1 Reynolds number fixed          Mach number fixed         

 xtrf =   1.000 (top)        1.000 (bottom)
 Mach =   0.000     Re =     0.250 e 6     Ncrit =   9.000

  alpha     CL        CD       CDp       Cm    Top Xtr Bot Xtr   Cpmin    Chinge    XCp    
 ------- -------- --------- --------- -------- ------- ------- -------- --------- ---------
   0.000   0.2330   0.00922   0.00411  -0.0476  0.7779  0.8990  -0.5610   0.0000   0.0000   0.0000   0.4532
   0.500   0.2888   0.00922   0.00406  -0.0465  0.7573  0.9306  -0.6125   0.0000   0.0000   0.0000   0.4092
   1.000   0.3634   0.00928   0.00403  -0.0496  0.7356  0.9550  -0.6773   0.0000   0.0000   0.0000   0.3841
   1.500   0.4478   0.00931   0.00395  -0.0551  0.7110  0.9707  -0.7583   0.0000   0.0000   0.0000   0.3704
   2.000   0.5286   0.00935   0.00387  -0.0602  0.6842  0.9857  -0.8428   0.0000   0.0000   0.0000   0.3608
   2.500   0.6119   0.00934   0.00378  -0.0661  0.6529  0.9992  -0.9439   0.0000   0.0000   0.0000   0.3546
   3.000   0.6472   0.00938   0.00373  -0.0626  0.6215  1.0000  -1.0249   0.0000   0.0000   0.0000   0.3428
   3.500   0.6805   0.00956   0.00379  -0.0584  0.5904  1.0000  -1.1115   0.0000   0.0000   0.0000   0.3314
   4.000   0.7190   0.00986   0.00395  -0.0550  0.5558  1.0000  -1.2362   0.0000   0.0000   0.0000   0.3218
   4.500   0.7613   0.01025   0.00424  -0.0524  0.5192  1.0000  -1.4037   0.0000   0.0000   0.0000   0.3136
   5.000   0.8052   0.01070   0.00456  -0.0501  0.4775  1.0000  -1.6417   0.0000   0.0000   0.0000   0.3064
   5.500   0.8503   0.01124   0.00498  -0.0481  0.4406  1.0000  -1.9863   0.0000   0.0000   0.0000   0.3003
   6.000   0.8937   0.01186   0.00549  -0.0459  0.3953  1.0000  -2.3447   0.0000   0.0000   0.0000   0.2945
   6.500   0.9363   0.01257   0.00605  -0.0436  0.3491  1.0000  -2.7170   0.0000   0.0000   0.0000   0.2893
   7.000   0.9769   0.01337   0.00670  -0.0412  0.2949  1.0000  -3.0990   0.0000   0.0000   0.0000   0.2843
   7.500   1.0145   0.01439   0.00752  -0.0384  0.2370  1.0000  -3.4825   0.0000   0.0000   0.0000   0.2794
   8.000   1.0482   0.01566   0.00849  -0.0352  0.1753  1.0000  -3.8609   0.0000   0.0000   0.0000   0.2745
   8.500   1.0779   0.01717   0.00968  -0.0315  0.1203  1.0000  -4.2292   0.0000   0.0000   0.0000   0.2696
   9.000   1.1071   0.01859   0.01097  -0.0278  0.0874  1.0000  -4.5980   0.0000   0.0000   0.0000   0.2647
   9.500   1.1302   0.02001   0.01235  -0.0229  0.0653  1.0000  -4.9395   0.0000   0.0000   0.0000   0.2593
  10.000   1.1486   0.02164   0.01401  -0.0177  0.0475  1.0000  -5.2426   0.0000   0.0000   0.0000   0.2538


