xflr5 v6.61

 Calculated polar for: peg24_90_revT

 1 1 Reynolds number fixed          Mach number fixed         

 xtrf =   1.000 (top)        1.000 (bottom)
 Mach =   0.000     Re =     0.305 e 6     Ncrit =   9.000

  alpha     CL        CD       CDp       Cm    Top Xtr Bot Xtr   Cpmin    Chinge    XCp    
 ------- -------- --------- --------- -------- ------- ------- -------- --------- ---------
   0.000   0.6685   0.01177   0.00611  -0.1576  0.7511  0.6089  -0.8816   0.0000   0.0000   0.0000   0.4846
   0.500   0.7230   0.01158   0.00616  -0.1570  0.7414  0.6913  -0.9298   0.0000   0.0000   0.0000   0.4652
   1.000   0.7789   0.01134   0.00601  -0.1563  0.7329  0.7674  -0.9820   0.0000   0.0000   0.0000   0.4480
   1.500   0.8285   0.01125   0.00610  -0.1545  0.7231  0.8363  -1.0363   0.0000   0.0000   0.0000   0.4331
   2.000   0.8730   0.01084   0.00586  -0.1512  0.7117  0.9404  -1.0919   0.0000   0.0000   0.0000   0.4193
   2.500   0.9372   0.01078   0.00564  -0.1528  0.7011  1.0000  -1.1631   0.0000   0.0000   0.0000   0.4084
   3.000   0.9934   0.01078   0.00565  -0.1529  0.6870  1.0000  -1.2326   0.0000   0.0000   0.0000   0.3987
   3.500   1.0523   0.01079   0.00553  -0.1533  0.6737  1.0000  -1.3143   0.0000   0.0000   0.0000   0.3898
   4.000   1.1067   0.01084   0.00561  -0.1530  0.6572  1.0000  -1.3972   0.0000   0.0000   0.0000   0.3817
   4.500   1.1612   0.01095   0.00569  -0.1527  0.6381  1.0000  -1.4937   0.0000   0.0000   0.0000   0.3742
   5.000   1.2144   0.01110   0.00579  -0.1521  0.6155  1.0000  -1.5973   0.0000   0.0000   0.0000   0.3673
   5.500   1.2653   0.01138   0.00601  -0.1511  0.5884  1.0000  -1.7129   0.0000   0.0000   0.0000   0.3608
   6.000   1.3129   0.01182   0.00635  -0.1496  0.5543  1.0000  -1.8338   0.0000   0.0000   0.0000   0.3546
   6.500   1.3570   0.01250   0.00686  -0.1475  0.5177  1.0000  -1.9671   0.0000   0.0000   0.0000   0.3486
   7.000   1.3974   0.01333   0.00757  -0.1449  0.4766  1.0000  -2.1107   0.0000   0.0000   0.0000   0.3429
   7.500   1.4318   0.01442   0.00847  -0.1415  0.4363  1.0000  -2.2540   0.0000   0.0000   0.0000   0.3373
   8.000   1.4613   0.01558   0.00951  -0.1373  0.3972  1.0000  -2.3992   0.0000   0.0000   0.0000   0.3317
   8.500   1.4829   0.01712   0.01089  -0.1322  0.3608  1.0000  -2.5498   0.0000   0.0000   0.0000   0.3260
   9.000   1.5061   0.01874   0.01245  -0.1277  0.3271  1.0000  -2.7221   0.0000   0.0000   0.0000   0.3209
   9.500   1.5271   0.02066   0.01429  -0.1235  0.2957  1.0000  -2.9123   0.0000   0.0000   0.0000   0.3161
  10.000   1.5463   0.02286   0.01644  -0.1194  0.2667  1.0000  -3.1114   0.0000   0.0000   0.0000   0.3116


