xflr5 v6.61

 Calculated polar for: peg24_70_revT

 1 1 Reynolds number fixed          Mach number fixed         

 xtrf =   1.000 (top)        1.000 (bottom)
 Mach =   0.000     Re =     0.100 e 6     Ncrit =   9.000

  alpha     CL        CD       CDp       Cm    Top Xtr Bot Xtr   Cpmin    Chinge    XCp    
 ------- -------- --------- --------- -------- ------- ------- -------- --------- ---------
   0.000   0.3766   0.02851   0.02197  -0.1153  0.8171  0.8883  -0.6556   0.0000   0.0000   0.0000   0.5562
   0.500   0.4754   0.02813   0.02129  -0.1220  0.8103  1.0000  -0.7276   0.0000   0.0000   0.0000   0.5056
   1.000   0.5114   0.02932   0.02227  -0.1209  0.7883  1.0000  -0.7597   0.0000   0.0000   0.0000   0.4845
   2.000   0.6442   0.02977   0.02240  -0.1241  0.7597  1.0000  -0.8848   0.0000   0.0000   0.0000   0.4393
   3.000   0.7744   0.02927   0.02176  -0.1251  0.7315  1.0000  -1.0265   0.0000   0.0000   0.0000   0.4069
   4.000   0.9066   0.02763   0.02011  -0.1250  0.7032  1.0000  -1.2008   0.0000   0.0000   0.0000   0.3821
   4.500   0.9546   0.02767   0.02022  -0.1231  0.6811  1.0000  -1.2850   0.0000   0.0000   0.0000   0.3725
   5.000   1.0112   0.02710   0.01973  -0.1219  0.6615  1.0000  -1.3863   0.0000   0.0000   0.0000   0.3635
   5.500   1.0980   0.02448   0.01712  -0.1234  0.6499  1.0000  -1.5455   0.0000   0.0000   0.0000   0.3547
   6.000   1.1557   0.02362   0.01633  -0.1221  0.6251  1.0000  -1.6833   0.0000   0.0000   0.0000   0.3473
   6.500   1.2167   0.02271   0.01543  -0.1213  0.5979  1.0000  -1.8484   0.0000   0.0000   0.0000   0.3406
   7.000   1.2634   0.02267   0.01547  -0.1188  0.5627  1.0000  -2.0081   0.0000   0.0000   0.0000   0.3343
   7.500   1.3147   0.02260   0.01533  -0.1169  0.5249  1.0000  -2.2044   0.0000   0.0000   0.0000   0.3284
   8.000   1.3586   0.02319   0.01581  -0.1143  0.4834  1.0000  -2.4122   0.0000   0.0000   0.0000   0.3229
   8.500   1.3998   0.02409   0.01653  -0.1115  0.4410  1.0000  -2.6689   0.0000   0.0000   0.0000   0.3176
   9.000   1.4279   0.02554   0.01799  -0.1072  0.3992  1.0000  -2.9291   0.0000   0.0000   0.0000   0.3122
   9.500   1.4574   0.02716   0.01936  -0.1032  0.3593  1.0000  -3.2034   0.0000   0.0000   0.0000   0.3072
  10.000   1.4706   0.02909   0.02138  -0.0972  0.3223  1.0000  -3.4315   0.0000   0.0000   0.0000   0.3017


