xflr5 v6.61

 Calculated polar for: peg24_65_revT

 1 1 Reynolds number fixed          Mach number fixed         

 xtrf =   1.000 (top)        1.000 (bottom)
 Mach =   0.000     Re =     0.085 e 6     Ncrit =   9.000

  alpha     CL        CD       CDp       Cm    Top Xtr Bot Xtr   Cpmin    Chinge    XCp    
 ------- -------- --------- --------- -------- ------- ------- -------- --------- ---------
   0.000   0.3232   0.03034   0.02341  -0.1073  0.8416  1.0000  -0.6146   0.0000   0.0000   0.0000   0.5822
   0.500   0.3780   0.03155   0.02425  -0.1097  0.8220  1.0000  -0.6531   0.0000   0.0000   0.0000   0.5394
   1.000   0.4725   0.03195   0.02433  -0.1160  0.8113  1.0000  -0.7259   0.0000   0.0000   0.0000   0.4937
   1.500   0.5134   0.03312   0.02533  -0.1150  0.7887  1.0000  -0.7652   0.0000   0.0000   0.0000   0.4714
   2.500   0.6520   0.03373   0.02570  -0.1185  0.7573  1.0000  -0.8989   0.0000   0.0000   0.0000   0.4278
   3.000   0.6954   0.03471   0.02664  -0.1170  0.7342  1.0000  -0.9516   0.0000   0.0000   0.0000   0.4137
   4.000   0.8389   0.03324   0.02519  -0.1183  0.7040  1.0000  -1.1305   0.0000   0.0000   0.0000   0.3853
   4.500   0.8873   0.03343   0.02546  -0.1164  0.6810  1.0000  -1.2115   0.0000   0.0000   0.0000   0.3749
   5.500   1.0380   0.02956   0.02176  -0.1163  0.6505  1.0000  -1.4757   0.0000   0.0000   0.0000   0.3546
   6.000   1.0969   0.02848   0.02080  -0.1148  0.6264  1.0000  -1.6126   0.0000   0.0000   0.0000   0.3465
   6.500   1.1621   0.02701   0.01943  -0.1138  0.6010  1.0000  -1.7825   0.0000   0.0000   0.0000   0.3391
   7.000   1.2325   0.02544   0.01786  -0.1135  0.5719  1.0000  -1.9888   0.0000   0.0000   0.0000   0.3325
   7.500   1.2762   0.02562   0.01812  -0.1105  0.5332  1.0000  -2.1743   0.0000   0.0000   0.0000   0.3264
   8.000   1.3350   0.02534   0.01763  -0.1093  0.4932  1.0000  -2.4273   0.0000   0.0000   0.0000   0.3209
   8.500   1.3692   0.02641   0.01876  -0.1055  0.4493  1.0000  -2.7007   0.0000   0.0000   0.0000   0.3153
   9.000   1.4064   0.02763   0.01983  -0.1022  0.4065  1.0000  -2.9938   0.0000   0.0000   0.0000   0.3101
   9.500   1.4366   0.02915   0.02120  -0.0982  0.3643  1.0000  -3.2755   0.0000   0.0000   0.0000   0.3050
  10.000   1.4555   0.03118   0.02326  -0.0930  0.3242  1.0000  -3.5262   0.0000   0.0000   0.0000   0.2997


