xflr5 v6.61

 Calculated polar for: peg24_100_revT

 1 1 Reynolds number fixed          Mach number fixed         

 xtrf =   1.000 (top)        1.000 (bottom)
 Mach =   0.000     Re =     0.370 e 6     Ncrit =   9.000

  alpha     CL        CD       CDp       Cm    Top Xtr Bot Xtr   Cpmin    Chinge    XCp    
 ------- -------- --------- --------- -------- ------- ------- -------- --------- ---------
   0.000   0.7197   0.01080   0.00516  -0.1687  0.7387  0.5353  -0.9257   0.0000   0.0000   0.0000   0.4831
   0.500   0.7782   0.01060   0.00510  -0.1689  0.7311  0.6115  -0.9749   0.0000   0.0000   0.0000   0.4650
   1.000   0.8330   0.01054   0.00527  -0.1686  0.7225  0.6892  -1.0254   0.0000   0.0000   0.0000   0.4496
   1.500   0.8877   0.01036   0.00526  -0.1679  0.7127  0.7656  -1.0824   0.0000   0.0000   0.0000   0.4357
   2.000   0.9412   0.01018   0.00516  -0.1668  0.7032  0.8355  -1.1444   0.0000   0.0000   0.0000   0.4231
   2.500   0.9867   0.00985   0.00508  -0.1641  0.6922  1.0000  -1.2034   0.0000   0.0000   0.0000   0.4115
   3.000   1.0461   0.00983   0.00494  -0.1648  0.6800  1.0000  -1.2745   0.0000   0.0000   0.0000   0.4020
   3.500   1.1026   0.00994   0.00503  -0.1649  0.6665  1.0000  -1.3529   0.0000   0.0000   0.0000   0.3934
   4.000   1.1593   0.01001   0.00502  -0.1650  0.6519  1.0000  -1.4353   0.0000   0.0000   0.0000   0.3855
   4.500   1.2129   0.01016   0.00518  -0.1646  0.6330  1.0000  -1.5305   0.0000   0.0000   0.0000   0.3782
   5.000   1.2658   0.01037   0.00535  -0.1640  0.6113  1.0000  -1.6320   0.0000   0.0000   0.0000   0.3714
   5.500   1.3163   0.01069   0.00560  -0.1631  0.5848  1.0000  -1.7434   0.0000   0.0000   0.0000   0.3649
   6.000   1.3632   0.01118   0.00596  -0.1615  0.5511  1.0000  -1.8582   0.0000   0.0000   0.0000   0.3588
   6.500   1.4063   0.01189   0.00652  -0.1593  0.5150  1.0000  -1.9826   0.0000   0.0000   0.0000   0.3529
   7.000   1.4450   0.01277   0.00725  -0.1565  0.4745  1.0000  -2.1188   0.0000   0.0000   0.0000   0.3471
   7.500   1.4772   0.01388   0.00818  -0.1526  0.4346  1.0000  -2.2531   0.0000   0.0000   0.0000   0.3414
   8.000   1.5033   0.01511   0.00930  -0.1479  0.3971  1.0000  -2.3850   0.0000   0.0000   0.0000   0.3356
   8.500   1.5233   0.01676   0.01078  -0.1426  0.3609  1.0000  -2.5137   0.0000   0.0000   0.0000   0.3301
   9.000   1.5453   0.01851   0.01245  -0.1382  0.3280  1.0000  -2.6597   0.0000   0.0000   0.0000   0.3250
   9.500   1.5664   0.02051   0.01437  -0.1340  0.2973  1.0000  -2.8212   0.0000   0.0000   0.0000   0.3203
  10.000   1.5862   0.02273   0.01654  -0.1300  0.2698  1.0000  -3.0086   0.0000   0.0000   0.0000   0.3158


