xflr5 v6.61

 Calculated polar for: peg24_75_revT

 1 1 Reynolds number fixed          Mach number fixed         

 xtrf =   1.000 (top)        1.000 (bottom)
 Mach =   0.000     Re =     0.485 e 6     Ncrit =   9.000

  alpha     CL        CD       CDp       Cm    Top Xtr Bot Xtr   Cpmin    Chinge    XCp    
 ------- -------- --------- --------- -------- ------- ------- -------- --------- ---------
   0.000   0.6117   0.00836   0.00319  -0.1413  0.7267  0.6054  -0.8380   0.0000   0.0000   0.0000   0.4796
   0.500   0.6676   0.00819   0.00325  -0.1411  0.7175  0.6844  -0.8870   0.0000   0.0000   0.0000   0.4593
   1.000   0.7232   0.00808   0.00324  -0.1406  0.7066  0.7492  -0.9414   0.0000   0.0000   0.0000   0.4418
   1.500   0.7775   0.00806   0.00333  -0.1400  0.6956  0.8051  -0.9997   0.0000   0.0000   0.0000   0.4267
   2.000   0.8297   0.00794   0.00332  -0.1388  0.6821  0.8587  -1.0607   0.0000   0.0000   0.0000   0.4134
   2.500   0.8771   0.00778   0.00330  -0.1365  0.6685  0.9455  -1.1203   0.0000   0.0000   0.0000   0.4010
   3.000   0.9374   0.00784   0.00328  -0.1374  0.6519  1.0000  -1.1977   0.0000   0.0000   0.0000   0.3914
   3.500   0.9940   0.00799   0.00340  -0.1376  0.6331  1.0000  -1.2762   0.0000   0.0000   0.0000   0.3827
   4.000   1.0490   0.00821   0.00354  -0.1374  0.6098  1.0000  -1.3683   0.0000   0.0000   0.0000   0.3747
   4.500   1.1027   0.00852   0.00375  -0.1371  0.5830  1.0000  -1.4651   0.0000   0.0000   0.0000   0.3674
   5.000   1.1534   0.00897   0.00405  -0.1362  0.5477  1.0000  -1.5762   0.0000   0.0000   0.0000   0.3605
   5.500   1.2033   0.00951   0.00446  -0.1352  0.5119  1.0000  -1.6965   0.0000   0.0000   0.0000   0.3542
   6.000   1.2497   0.01023   0.00499  -0.1337  0.4692  1.0000  -1.8295   0.0000   0.0000   0.0000   0.3481
   6.500   1.2953   0.01099   0.00561  -0.1322  0.4292  1.0000  -1.9775   0.0000   0.0000   0.0000   0.3425
   7.500   1.3778   0.01287   0.00717  -0.1278  0.3485  1.0000  -2.3171   0.0000   0.0000   0.0000   0.3318
   8.000   1.4132   0.01400   0.00813  -0.1248  0.3112  1.0000  -2.5127   0.0000   0.0000   0.0000   0.3265
   8.500   1.4457   0.01512   0.00916  -0.1213  0.2787  1.0000  -2.7526   0.0000   0.0000   0.0000   0.3214
   9.000   1.4754   0.01644   0.01038  -0.1176  0.2474  1.0000  -3.0286   0.0000   0.0000   0.0000   0.3164
   9.500   1.5009   0.01807   0.01189  -0.1137  0.2168  1.0000  -3.3036   0.0000   0.0000   0.0000   0.3117
  10.000   1.5243   0.01997   0.01368  -0.1099  0.1880  1.0000  -3.5782   0.0000   0.0000   0.0000   0.3072


