xflr5 v6.61

 Calculated polar for: peg24_70_revT

 1 1 Reynolds number fixed          Mach number fixed         

 xtrf =   1.000 (top)        1.000 (bottom)
 Mach =   0.000     Re =     0.415 e 6     Ncrit =   9.000

  alpha     CL        CD       CDp       Cm    Top Xtr Bot Xtr   Cpmin    Chinge    XCp    
 ------- -------- --------- --------- -------- ------- ------- -------- --------- ---------
   0.000   0.5854   0.00877   0.00361  -0.1354  0.7358  0.6561  -0.8173   0.0000   0.0000   0.0000   0.4800
   0.500   0.6409   0.00874   0.00371  -0.1350  0.7262  0.7305  -0.8658   0.0000   0.0000   0.0000   0.4586
   1.000   0.6949   0.00861   0.00373  -0.1342  0.7148  0.7888  -0.9197   0.0000   0.0000   0.0000   0.4405
   1.500   0.7480   0.00854   0.00369  -0.1330  0.7032  0.8423  -0.9774   0.0000   0.0000   0.0000   0.4246
   2.500   0.8543   0.00827   0.00353  -0.1310  0.6754  1.0000  -1.1027   0.0000   0.0000   0.0000   0.3989
   3.000   0.9114   0.00834   0.00360  -0.1313  0.6588  1.0000  -1.1779   0.0000   0.0000   0.0000   0.3891
   3.500   0.9679   0.00849   0.00370  -0.1315  0.6406  1.0000  -1.2572   0.0000   0.0000   0.0000   0.3802
   4.000   1.0229   0.00869   0.00381  -0.1313  0.6174  1.0000  -1.3497   0.0000   0.0000   0.0000   0.3722
   4.500   1.0766   0.00896   0.00400  -0.1309  0.5909  1.0000  -1.4484   0.0000   0.0000   0.0000   0.3648
   5.000   1.1281   0.00935   0.00428  -0.1301  0.5567  1.0000  -1.5607   0.0000   0.0000   0.0000   0.3579
   5.500   1.1772   0.00991   0.00467  -0.1290  0.5201  1.0000  -1.6827   0.0000   0.0000   0.0000   0.3515
   6.000   1.2249   0.01056   0.00519  -0.1277  0.4790  1.0000  -1.8231   0.0000   0.0000   0.0000   0.3455
   6.500   1.2693   0.01138   0.00582  -0.1259  0.4377  1.0000  -1.9739   0.0000   0.0000   0.0000   0.3398
   7.000   1.3126   0.01224   0.00655  -0.1240  0.3962  1.0000  -2.1418   0.0000   0.0000   0.0000   0.3344
   7.500   1.3523   0.01326   0.00740  -0.1216  0.3564  1.0000  -2.3335   0.0000   0.0000   0.0000   0.3291
   8.000   1.3897   0.01433   0.00833  -0.1189  0.3183  1.0000  -2.5578   0.0000   0.0000   0.0000   0.3240
   8.500   1.4200   0.01557   0.00945  -0.1151  0.2834  1.0000  -2.8323   0.0000   0.0000   0.0000   0.3188
   9.000   1.4505   0.01686   0.01066  -0.1116  0.2513  1.0000  -3.1202   0.0000   0.0000   0.0000   0.3139
   9.500   1.4765   0.01847   0.01216  -0.1077  0.2196  1.0000  -3.4014   0.0000   0.0000   0.0000   0.3091
  10.000   1.4991   0.02042   0.01400  -0.1039  0.1899  1.0000  -3.6777   0.0000   0.0000   0.0000   0.3046


