xflr5 v6.61

 Calculated polar for: peg24_50_revT

 1 1 Reynolds number fixed          Mach number fixed         

 xtrf =   1.000 (top)        1.000 (bottom)
 Mach =   0.000     Re =     0.445 e 6     Ncrit =   9.000

  alpha     CL        CD       CDp       Cm    Top Xtr Bot Xtr   Cpmin    Chinge    XCp    
 ------- -------- --------- --------- -------- ------- ------- -------- --------- ---------
   0.000   0.4917   0.00786   0.00297  -0.1122  0.7330  0.7269  -0.7453   0.0000   0.0000   0.0000   0.4769
   0.500   0.5462   0.00782   0.00303  -0.1115  0.7209  0.7803  -0.7950   0.0000   0.0000   0.0000   0.4522
   1.000   0.6000   0.00775   0.00301  -0.1106  0.7077  0.8261  -0.8489   0.0000   0.0000   0.0000   0.4318
   1.500   0.6515   0.00770   0.00304  -0.1092  0.6934  0.8713  -0.9062   0.0000   0.0000   0.0000   0.4145
   2.000   0.6999   0.00760   0.00297  -0.1069  0.6773  0.9255  -0.9632   0.0000   0.0000   0.0000   0.3992
   2.500   0.7630   0.00753   0.00293  -0.1083  0.6588  1.0000  -1.0375   0.0000   0.0000   0.0000   0.3878
   3.000   0.8202   0.00769   0.00301  -0.1087  0.6386  1.0000  -1.1125   0.0000   0.0000   0.0000   0.3778
   3.500   0.8759   0.00789   0.00312  -0.1087  0.6137  1.0000  -1.1992   0.0000   0.0000   0.0000   0.3688
   4.000   0.9304   0.00816   0.00329  -0.1084  0.5849  1.0000  -1.2916   0.0000   0.0000   0.0000   0.3608
   4.500   0.9829   0.00856   0.00353  -0.1079  0.5499  1.0000  -1.4021   0.0000   0.0000   0.0000   0.3534
   5.000   1.0346   0.00903   0.00388  -0.1072  0.5137  1.0000  -1.5232   0.0000   0.0000   0.0000   0.3467
   5.500   1.0842   0.00964   0.00431  -0.1062  0.4709  1.0000  -1.6645   0.0000   0.0000   0.0000   0.3405
   6.000   1.1331   0.01029   0.00484  -0.1052  0.4305  1.0000  -1.8301   0.0000   0.0000   0.0000   0.3347
   7.000   1.2259   0.01190   0.00614  -0.1025  0.3469  1.0000  -2.3365   0.0000   0.0000   0.0000   0.3242
   7.500   1.2693   0.01285   0.00692  -0.1008  0.3064  1.0000  -2.6612   0.0000   0.0000   0.0000   0.3193
   8.000   1.3106   0.01389   0.00780  -0.0988  0.2659  1.0000  -2.9921   0.0000   0.0000   0.0000   0.3146
   8.500   1.3497   0.01500   0.00879  -0.0966  0.2286  1.0000  -3.3276   0.0000   0.0000   0.0000   0.3101
   9.000   1.3820   0.01633   0.00994  -0.0933  0.1914  1.0000  -3.6498   0.0000   0.0000   0.0000   0.3053
   9.500   1.4116   0.01777   0.01125  -0.0898  0.1561  1.0000  -3.9705   0.0000   0.0000   0.0000   0.3006
  10.000   1.4352   0.01962   0.01294  -0.0858  0.1234  1.0000  -4.2751   0.0000   0.0000   0.0000   0.2961


