xflr5 v6.61

 Calculated polar for: peg24_10_revT

 1 1 Reynolds number fixed          Mach number fixed         

 xtrf =   1.000 (top)        1.000 (bottom)
 Mach =   0.000     Re =     0.465 e 6     Ncrit =   9.000

  alpha     CL        CD       CDp       Cm    Top Xtr Bot Xtr   Cpmin    Chinge    XCp    
 ------- -------- --------- --------- -------- ------- ------- -------- --------- ---------
   0.000   0.3003   0.00693   0.00231  -0.0645  0.7269  0.8111  -0.6066   0.0000   0.0000   0.0000   0.4635
   0.500   0.3538   0.00690   0.00231  -0.0635  0.7086  0.8435  -0.6563   0.0000   0.0000   0.0000   0.4277
   1.000   0.4062   0.00692   0.00233  -0.0623  0.6884  0.8751  -0.7098   0.0000   0.0000   0.0000   0.4010
   1.500   0.4565   0.00693   0.00235  -0.0605  0.6671  0.9071  -0.7657   0.0000   0.0000   0.0000   0.3798
   2.000   0.5069   0.00696   0.00236  -0.0588  0.6429  0.9425  -0.8275   0.0000   0.0000   0.0000   0.3627
   2.500   0.5722   0.00704   0.00238  -0.0605  0.6146  0.9760  -0.9055   0.0000   0.0000   0.0000   0.3521
   3.000   0.6446   0.00722   0.00245  -0.0642  0.5809  1.0000  -1.0011   0.0000   0.0000   0.0000   0.3455
   3.500   0.6951   0.00754   0.00260  -0.0635  0.5472  1.0000  -1.0993   0.0000   0.0000   0.0000   0.3367
   4.000   0.7477   0.00788   0.00283  -0.0630  0.5111  1.0000  -1.2111   0.0000   0.0000   0.0000   0.3293
   4.500   0.7994   0.00833   0.00312  -0.0624  0.4705  1.0000  -1.3683   0.0000   0.0000   0.0000   0.3226
   5.000   0.8515   0.00880   0.00347  -0.0619  0.4308  1.0000  -1.6472   0.0000   0.0000   0.0000   0.3167
   5.500   0.9023   0.00938   0.00390  -0.0612  0.3887  1.0000  -1.9893   0.0000   0.0000   0.0000   0.3113
   6.000   0.9523   0.01004   0.00439  -0.0604  0.3417  1.0000  -2.3475   0.0000   0.0000   0.0000   0.3064
   7.000   1.0481   0.01178   0.00568  -0.0585  0.2321  1.0000  -3.0976   0.0000   0.0000   0.0000   0.2977
   7.500   1.0939   0.01284   0.00650  -0.0574  0.1799  1.0000  -3.4859   0.0000   0.0000   0.0000   0.2937
   8.000   1.1366   0.01416   0.00752  -0.0559  0.1259  1.0000  -3.8796   0.0000   0.0000   0.0000   0.2898
   8.500   1.1783   0.01550   0.00866  -0.0543  0.0862  1.0000  -4.2937   0.0000   0.0000   0.0000   0.2860
   9.000   1.2186   0.01687   0.00991  -0.0525  0.0599  1.0000  -4.7096   0.0000   0.0000   0.0000   0.2824
   9.500   1.2562   0.01835   0.01130  -0.0504  0.0405  1.0000  -5.1137   0.0000   0.0000   0.0000   0.2787
  10.000   1.2865   0.02021   0.01312  -0.0472  0.0244  1.0000  -5.4496   0.0000   0.0000   0.0000   0.2746


