xflr5 v6.61

 Calculated polar for: peg24_75_revT

 1 1 Reynolds number fixed          Mach number fixed         

 xtrf =   1.000 (top)        1.000 (bottom)
 Mach =   0.000     Re =     0.090 e 6     Ncrit =   9.000

  alpha     CL        CD       CDp       Cm    Top Xtr Bot Xtr   Cpmin    Chinge    XCp    
 ------- -------- --------- --------- -------- ------- ------- -------- --------- ---------
   0.000   0.3541   0.03242   0.02560  -0.1177  0.8259  0.8493  -0.6371   0.0000   0.0000   0.0000   0.5828
   0.500   0.4271   0.03228   0.02526  -0.1203  0.8133  1.0000  -0.6920   0.0000   0.0000   0.0000   0.5308
   1.000   0.4722   0.03369   0.02640  -0.1207  0.7934  1.0000  -0.7278   0.0000   0.0000   0.0000   0.5039
   1.500   0.5654   0.03363   0.02607  -0.1260  0.7839  1.0000  -0.8061   0.0000   0.0000   0.0000   0.4702
   3.000   0.7361   0.03516   0.02730  -0.1265  0.7314  1.0000  -0.9839   0.0000   0.0000   0.0000   0.4172
   4.000   0.8298   0.03658   0.02873  -0.1237  0.6896  1.0000  -1.1092   0.0000   0.0000   0.0000   0.3931
   4.500   0.9173   0.03423   0.02642  -0.1250  0.6798  1.0000  -1.2277   0.0000   0.0000   0.0000   0.3798
   5.500   1.0641   0.03056   0.02290  -0.1250  0.6512  1.0000  -1.4765   0.0000   0.0000   0.0000   0.3596
   6.000   1.1185   0.02977   0.02223  -0.1231  0.6284  1.0000  -1.5984   0.0000   0.0000   0.0000   0.3516
   6.500   1.1823   0.02829   0.02086  -0.1221  0.6055  1.0000  -1.7508   0.0000   0.0000   0.0000   0.3441
   7.000   1.2511   0.02660   0.01923  -0.1216  0.5794  1.0000  -1.9352   0.0000   0.0000   0.0000   0.3373
   7.500   1.3199   0.02521   0.01779  -0.1213  0.5475  1.0000  -2.1461   0.0000   0.0000   0.0000   0.3313
   8.000   1.3641   0.02552   0.01810  -0.1185  0.5082  1.0000  -2.3389   0.0000   0.0000   0.0000   0.3255
   8.500   1.4143   0.02583   0.01821  -0.1165  0.4667  1.0000  -2.5772   0.0000   0.0000   0.0000   0.3202
   9.000   1.4425   0.02721   0.01960  -0.1121  0.4247  1.0000  -2.8028   0.0000   0.0000   0.0000   0.3147
   9.500   1.4763   0.02864   0.02080  -0.1085  0.3841  1.0000  -3.0856   0.0000   0.0000   0.0000   0.3097
  10.000   1.4918   0.03057   0.02279  -0.1027  0.3464  1.0000  -3.3119   0.0000   0.0000   0.0000   0.3042


