xflr5 v6.61

 Calculated polar for: peg24_100_revT

 1 1 Reynolds number fixed          Mach number fixed         

 xtrf =   1.000 (top)        1.000 (bottom)
 Mach =   0.000     Re =     0.475 e 6     Ncrit =   9.000

  alpha     CL        CD       CDp       Cm    Top Xtr Bot Xtr   Cpmin    Chinge    XCp    
 ------- -------- --------- --------- -------- ------- ------- -------- --------- ---------
   0.000   0.7267   0.00939   0.00389  -0.1691  0.7264  0.5018  -0.9322   0.0000   0.0000   0.0000   0.4812
   0.500   0.7838   0.00919   0.00391  -0.1692  0.7183  0.5704  -0.9801   0.0000   0.0000   0.0000   0.4637
   1.000   0.8412   0.00901   0.00390  -0.1693  0.7098  0.6479  -1.0326   0.0000   0.0000   0.0000   0.4484
   1.500   0.8974   0.00898   0.00400  -0.1692  0.7001  0.7248  -1.0908   0.0000   0.0000   0.0000   0.4349
   2.000   0.9515   0.00886   0.00408  -0.1685  0.6901  0.7920  -1.1533   0.0000   0.0000   0.0000   0.4229
   2.500   1.0036   0.00871   0.00402  -0.1673  0.6784  0.8577  -1.2174   0.0000   0.0000   0.0000   0.4118
   3.000   1.0529   0.00853   0.00401  -0.1656  0.6661  1.0000  -1.2814   0.0000   0.0000   0.0000   0.4017
   3.500   1.1102   0.00864   0.00402  -0.1659  0.6521  1.0000  -1.3612   0.0000   0.0000   0.0000   0.3932
   4.000   1.1657   0.00880   0.00418  -0.1659  0.6355  1.0000  -1.4425   0.0000   0.0000   0.0000   0.3854
   4.500   1.2198   0.00902   0.00433  -0.1656  0.6149  1.0000  -1.5391   0.0000   0.0000   0.0000   0.3782
   5.000   1.2721   0.00932   0.00456  -0.1650  0.5913  1.0000  -1.6407   0.0000   0.0000   0.0000   0.3714
   5.500   1.3214   0.00976   0.00489  -0.1639  0.5583  1.0000  -1.7515   0.0000   0.0000   0.0000   0.3650
   6.000   1.3673   0.01039   0.00535  -0.1622  0.5228  1.0000  -1.8653   0.0000   0.0000   0.0000   0.3589
   6.500   1.4099   0.01117   0.00599  -0.1600  0.4836  1.0000  -1.9898   0.0000   0.0000   0.0000   0.3531
   7.000   1.4471   0.01216   0.00678  -0.1570  0.4417  1.0000  -2.1247   0.0000   0.0000   0.0000   0.3473
   7.500   1.4809   0.01319   0.00768  -0.1535  0.4043  1.0000  -2.2617   0.0000   0.0000   0.0000   0.3417
   8.000   1.5073   0.01447   0.00881  -0.1488  0.3666  1.0000  -2.3951   0.0000   0.0000   0.0000   0.3360
   8.500   1.5300   0.01604   0.01023  -0.1440  0.3322  1.0000  -2.5289   0.0000   0.0000   0.0000   0.3306
   9.000   1.5551   0.01768   0.01178  -0.1400  0.3012  1.0000  -2.6837   0.0000   0.0000   0.0000   0.3256
   9.500   1.5787   0.01955   0.01358  -0.1362  0.2731  1.0000  -2.8544   0.0000   0.0000   0.0000   0.3210
  10.000   1.6004   0.02165   0.01562  -0.1324  0.2468  1.0000  -3.0527   0.0000   0.0000   0.0000   0.3166


