xflr5 v6.61

 Calculated polar for: peg24_20_revT

 1 1 Reynolds number fixed          Mach number fixed         

 xtrf =   1.000 (top)        1.000 (bottom)
 Mach =   0.000     Re =     0.310 e 6     Ncrit =   9.000

  alpha     CL        CD       CDp       Cm    Top Xtr Bot Xtr   Cpmin    Chinge    XCp    
 ------- -------- --------- --------- -------- ------- ------- -------- --------- ---------
   0.000   0.3393   0.00860   0.00363  -0.0748  0.7585  0.8456  -0.6336   0.0000   0.0000   0.0000   0.4693
   0.500   0.3880   0.00854   0.00362  -0.0725  0.7421  0.8840  -0.6811   0.0000   0.0000   0.0000   0.4350
   1.000   0.4365   0.00849   0.00351  -0.0700  0.7257  0.9242  -0.7320   0.0000   0.0000   0.0000   0.4080
   1.500   0.4977   0.00836   0.00337  -0.0704  0.7063  0.9647  -0.7938   0.0000   0.0000   0.0000   0.3886
   2.000   0.5791   0.00831   0.00327  -0.0757  0.6845  0.9982  -0.8760   0.0000   0.0000   0.0000   0.3774
   2.500   0.6305   0.00842   0.00327  -0.0752  0.6610  1.0000  -0.9432   0.0000   0.0000   0.0000   0.3655
   3.000   0.6839   0.00858   0.00333  -0.0748  0.6348  1.0000  -1.0225   0.0000   0.0000   0.0000   0.3552
   3.500   0.7374   0.00880   0.00344  -0.0744  0.6048  1.0000  -1.1125   0.0000   0.0000   0.0000   0.3462
   4.000   0.7901   0.00913   0.00361  -0.0738  0.5722  1.0000  -1.2236   0.0000   0.0000   0.0000   0.3382
   4.500   0.8423   0.00949   0.00390  -0.0731  0.5353  1.0000  -1.3508   0.0000   0.0000   0.0000   0.3311
   5.000   0.8929   0.01000   0.00425  -0.0722  0.4956  1.0000  -1.5197   0.0000   0.0000   0.0000   0.3247
   5.500   0.9434   0.01054   0.00469  -0.0714  0.4535  1.0000  -1.8061   0.0000   0.0000   0.0000   0.3189
   6.000   0.9924   0.01121   0.00523  -0.0703  0.4123  1.0000  -2.1419   0.0000   0.0000   0.0000   0.3136
   6.500   1.0397   0.01199   0.00585  -0.0691  0.3657  1.0000  -2.4887   0.0000   0.0000   0.0000   0.3086
   7.000   1.0865   0.01281   0.00656  -0.0679  0.3196  1.0000  -2.8493   0.0000   0.0000   0.0000   0.3041
   7.500   1.1315   0.01377   0.00738  -0.0665  0.2728  1.0000  -3.2170   0.0000   0.0000   0.0000   0.2997
   8.000   1.1731   0.01497   0.00836  -0.0648  0.2209  1.0000  -3.5849   0.0000   0.0000   0.0000   0.2955
   8.500   1.2113   0.01641   0.00956  -0.0627  0.1671  1.0000  -3.9493   0.0000   0.0000   0.0000   0.2913
   9.000   1.2460   0.01805   0.01095  -0.0602  0.1182  1.0000  -4.3071   0.0000   0.0000   0.0000   0.2872
   9.500   1.2767   0.01981   0.01255  -0.0572  0.0848  1.0000  -4.6646   0.0000   0.0000   0.0000   0.2830
  10.000   1.3009   0.02180   0.01446  -0.0533  0.0631  1.0000  -4.9986   0.0000   0.0000   0.0000   0.2785


