xflr5 v6.61

 Calculated polar for: peg24_85_revT

 1 1 Reynolds number fixed          Mach number fixed         

 xtrf =   1.000 (top)        1.000 (bottom)
 Mach =   0.000     Re =     0.380 e 6     Ncrit =   9.000

  alpha     CL        CD       CDp       Cm    Top Xtr Bot Xtr   Cpmin    Chinge    XCp    
 ------- -------- --------- --------- -------- ------- ------- -------- --------- ---------
   0.000   0.6528   0.00989   0.00448  -0.1523  0.7393  0.5985  -0.8697   0.0000   0.0000   0.0000   0.4820
   0.500   0.7100   0.00974   0.00445  -0.1522  0.7305  0.6810  -0.9202   0.0000   0.0000   0.0000   0.4623
   1.000   0.7638   0.00967   0.00459  -0.1515  0.7211  0.7517  -0.9710   0.0000   0.0000   0.0000   0.4456
   1.500   0.8172   0.00948   0.00453  -0.1504  0.7102  0.8149  -1.0284   0.0000   0.0000   0.0000   0.4307
   2.000   0.8672   0.00936   0.00450  -0.1486  0.6996  0.8809  -1.0886   0.0000   0.0000   0.0000   0.4174
   2.500   0.9201   0.00911   0.00435  -0.1476  0.6863  1.0000  -1.1515   0.0000   0.0000   0.0000   0.4058
   3.000   0.9790   0.00920   0.00431  -0.1482  0.6730  1.0000  -1.2254   0.0000   0.0000   0.0000   0.3961
   3.500   1.0352   0.00927   0.00438  -0.1482  0.6571  1.0000  -1.3044   0.0000   0.0000   0.0000   0.3873
   4.000   1.0907   0.00942   0.00449  -0.1482  0.6390  1.0000  -1.3917   0.0000   0.0000   0.0000   0.3793
   4.500   1.1448   0.00961   0.00460  -0.1478  0.6167  1.0000  -1.4874   0.0000   0.0000   0.0000   0.3719
   5.000   1.1973   0.00989   0.00482  -0.1472  0.5910  1.0000  -1.5948   0.0000   0.0000   0.0000   0.3651
   5.500   1.2469   0.01031   0.00513  -0.1461  0.5570  1.0000  -1.7090   0.0000   0.0000   0.0000   0.3586
   6.000   1.2936   0.01093   0.00558  -0.1445  0.5206  1.0000  -1.8335   0.0000   0.0000   0.0000   0.3525
   6.500   1.3377   0.01167   0.00620  -0.1426  0.4800  1.0000  -1.9739   0.0000   0.0000   0.0000   0.3467
   7.000   1.3767   0.01265   0.00697  -0.1399  0.4386  1.0000  -2.1159   0.0000   0.0000   0.0000   0.3410
   7.500   1.4145   0.01363   0.00784  -0.1371  0.3986  1.0000  -2.2704   0.0000   0.0000   0.0000   0.3355
   8.500   1.4718   0.01616   0.01011  -0.1288  0.3257  1.0000  -2.6045   0.0000   0.0000   0.0000   0.3246
   9.000   1.4971   0.01771   0.01156  -0.1247  0.2936  1.0000  -2.7965   0.0000   0.0000   0.0000   0.3196
   9.500   1.5196   0.01956   0.01331  -0.1205  0.2633  1.0000  -3.0036   0.0000   0.0000   0.0000   0.3148
  10.000   1.5404   0.02168   0.01535  -0.1166  0.2348  1.0000  -3.2474   0.0000   0.0000   0.0000   0.3103


