xflr5 v6.61

 Calculated polar for: peg24_70_revT

 1 1 Reynolds number fixed          Mach number fixed         

 xtrf =   1.000 (top)        1.000 (bottom)
 Mach =   0.000     Re =     0.030 e 6     Ncrit =   9.000

  alpha     CL        CD       CDp       Cm    Top Xtr Bot Xtr   Cpmin    Chinge    XCp    
 ------- -------- --------- --------- -------- ------- ------- -------- --------- ---------
   0.000  -0.0082   0.03808   0.02828  -0.0568  1.0000  1.0000  -1.0381   0.0000   0.0000   0.0000  -6.7319
   0.500   0.0644   0.04036   0.02935  -0.0666  1.0000  1.0000  -0.8555   0.0000   0.0000   0.0000   1.2889
   1.000   0.1128   0.04265   0.03097  -0.0698  1.0000  1.0000  -0.7041   0.0000   0.0000   0.0000   0.8687
   1.500   0.1559   0.04514   0.03297  -0.0720  1.0000  1.0000  -0.5765   0.0000   0.0000   0.0000   0.7094
   2.000   0.1957   0.04784   0.03532  -0.0737  1.0000  1.0000  -0.5323   0.0000   0.0000   0.0000   0.6230
   2.500   0.2330   0.05078   0.03799  -0.0753  1.0000  1.0000  -0.5571   0.0000   0.0000   0.0000   0.5683
   3.000   0.2682   0.05398   0.04099  -0.0767  1.0000  1.0000  -0.5823   0.0000   0.0000   0.0000   0.5305
   3.500   0.3014   0.05745   0.04432  -0.0781  1.0000  1.0000  -0.6053   0.0000   0.0000   0.0000   0.5029
   4.000   0.3328   0.06119   0.04798  -0.0795  1.0000  1.0000  -0.6288   0.0000   0.0000   0.0000   0.4821
   4.500   0.3624   0.06523   0.05197  -0.0809  1.0000  1.0000  -0.6506   0.0000   0.0000   0.0000   0.4660
   5.000   0.3905   0.06954   0.05628  -0.0824  1.0000  1.0000  -0.6743   0.0000   0.0000   0.0000   0.4532
   5.500   0.4171   0.07416   0.06093  -0.0840  1.0000  1.0000  -0.6950   0.0000   0.0000   0.0000   0.4429
   6.000   0.4426   0.07908   0.06590  -0.0857  1.0000  1.0000  -0.7176   0.0000   0.0000   0.0000   0.4346
   6.500   0.4974   0.08656   0.07352  -0.0936  0.9756  1.0000  -0.7652   0.0000   0.0000   0.0000   0.4288
   7.000   0.5459   0.09369   0.08081  -0.0998  0.9332  1.0000  -0.8086   0.0000   0.0000   0.0000   0.4230
   7.500   0.6157   0.10442   0.09171  -0.1091  0.8948  1.0000  -0.8803   0.0000   0.0000   0.0000   0.4170
   8.000   0.6242   0.10760   0.09507  -0.1076  0.8585  1.0000  -0.8973   0.0000   0.0000   0.0000   0.4116
   8.500   0.6518   0.11373   0.10139  -0.1094  0.8255  1.0000  -0.9323   0.0000   0.0000   0.0000   0.4067
   9.000   0.6864   0.12070   0.10856  -0.1121  0.7898  1.0000  -0.9811   0.0000   0.0000   0.0000   0.4016
   9.500   0.7080   0.12716   0.11522  -0.1134  0.7635  1.0000  -1.0150   0.0000   0.0000   0.0000   0.3980
  10.000   0.7403   0.13484   0.12313  -0.1159  0.7326  1.0000  -1.0659   0.0000   0.0000   0.0000   0.3938


