xflr5 v6.61

 Calculated polar for: peg24_55_revT

 1 1 Reynolds number fixed          Mach number fixed         

 xtrf =   1.000 (top)        1.000 (bottom)
 Mach =   0.000     Re =     0.230 e 6     Ncrit =   9.000

  alpha     CL        CD       CDp       Cm    Top Xtr Bot Xtr   Cpmin    Chinge    XCp    
 ------- -------- --------- --------- -------- ------- ------- -------- --------- ---------
   0.000   0.4934   0.01203   0.00664  -0.1160  0.7746  0.8073  -0.7448   0.0000   0.0000   0.0000   0.4840
   0.500   0.5400   0.01177   0.00645  -0.1129  0.7623  0.8676  -0.7892   0.0000   0.0000   0.0000   0.4573
   1.000   0.5866   0.01154   0.00625  -0.1098  0.7512  0.9385  -0.8386   0.0000   0.0000   0.0000   0.4348
   1.500   0.6560   0.01132   0.00596  -0.1125  0.7367  1.0000  -0.9054   0.0000   0.0000   0.0000   0.4186
   2.000   0.7161   0.01134   0.00584  -0.1134  0.7234  1.0000  -0.9690   0.0000   0.0000   0.0000   0.4048
   2.500   0.7744   0.01126   0.00567  -0.1137  0.7070  1.0000  -1.0387   0.0000   0.0000   0.0000   0.3927
   3.000   0.8306   0.01132   0.00568  -0.1136  0.6894  1.0000  -1.1132   0.0000   0.0000   0.0000   0.3821
   3.500   0.8878   0.01131   0.00559  -0.1135  0.6711  1.0000  -1.1976   0.0000   0.0000   0.0000   0.3727
   4.000   0.9437   0.01135   0.00553  -0.1132  0.6495  1.0000  -1.2897   0.0000   0.0000   0.0000   0.3642
   4.500   0.9972   0.01146   0.00560  -0.1126  0.6234  1.0000  -1.3966   0.0000   0.0000   0.0000   0.3565
   5.000   1.0491   0.01170   0.00582  -0.1117  0.5932  1.0000  -1.5149   0.0000   0.0000   0.0000   0.3495
   5.500   1.0992   0.01206   0.00611  -0.1105  0.5570  1.0000  -1.6480   0.0000   0.0000   0.0000   0.3430
   6.000   1.1477   0.01263   0.00651  -0.1091  0.5191  1.0000  -1.8016   0.0000   0.0000   0.0000   0.3369
   6.500   1.1933   0.01331   0.00711  -0.1074  0.4761  1.0000  -1.9775   0.0000   0.0000   0.0000   0.3312
   7.000   1.2365   0.01419   0.00785  -0.1054  0.4343  1.0000  -2.1770   0.0000   0.0000   0.0000   0.3257
   7.500   1.2767   0.01521   0.00871  -0.1030  0.3917  1.0000  -2.4754   0.0000   0.0000   0.0000   0.3205
   8.000   1.3144   0.01631   0.00972  -0.1003  0.3503  1.0000  -2.7807   0.0000   0.0000   0.0000   0.3154
   8.500   1.3462   0.01768   0.01093  -0.0969  0.3106  1.0000  -3.0772   0.0000   0.0000   0.0000   0.3103
   9.000   1.3751   0.01900   0.01222  -0.0931  0.2731  1.0000  -3.3726   0.0000   0.0000   0.0000   0.3053
   9.500   1.3964   0.02080   0.01388  -0.0886  0.2374  1.0000  -3.6478   0.0000   0.0000   0.0000   0.3003
  10.000   1.4185   0.02273   0.01580  -0.0847  0.2033  1.0000  -3.9305   0.0000   0.0000   0.0000   0.2957


