xflr5 v6.59

 Calculated polar for: revR_85_revT

 1 1 Reynolds number fixed          Mach number fixed         

 xtrf =   1.000 (top)        1.000 (bottom)
 Mach =   0.000     Re =     0.210 e 6     Ncrit =   9.000

  alpha     CL        CD       CDp       Cm    Top Xtr Bot Xtr   Cpmin    Chinge    XCp    
 ------- -------- --------- --------- -------- ------- ------- -------- --------- ---------
  -5.000   0.0726   0.01910   0.01188  -0.1436  0.8379  0.0654  -2.2183   0.0000   0.0000   0.0000   2.2761
  -4.500   0.1253   0.01743   0.01011  -0.1433  0.8288  0.0776  -2.0031   0.0000   0.0000   0.0000   1.4199
  -4.000   0.1834   0.01633   0.00895  -0.1437  0.8214  0.1023  -1.7721   0.0000   0.0000   0.0000   1.0489
  -3.500   0.2358   0.01573   0.00846  -0.1435  0.8116  0.1461  -1.5509   0.0000   0.0000   0.0000   0.8690
  -3.000   0.2915   0.01513   0.00805  -0.1437  0.8019  0.2180  -1.3193   0.0000   0.0000   0.0000   0.7501
  -2.500   0.3508   0.01463   0.00772  -0.1443  0.7947  0.3014  -1.0847   0.0000   0.0000   0.0000   0.6661
  -2.000   0.4028   0.01442   0.00782  -0.1441  0.7836  0.4006  -0.8807   0.0000   0.0000   0.0000   0.6107
  -1.500   0.4589   0.01400   0.00771  -0.1440  0.7746  0.5138  -0.7670   0.0000   0.0000   0.0000   0.5654
  -1.000   0.5132   0.01369   0.00777  -0.1430  0.7656  0.6508  -0.8077   0.0000   0.0000   0.0000   0.5293
  -0.500   0.5604   0.01364   0.00797  -0.1407  0.7536  0.7554  -0.8463   0.0000   0.0000   0.0000   0.5007
   0.000   0.6093   0.01345   0.00781  -0.1380  0.7452  0.8362  -0.8884   0.0000   0.0000   0.0000   0.4753
   0.500   0.6453   0.01341   0.00788  -0.1330  0.7329  0.9145  -0.9222   0.0000   0.0000   0.0000   0.4542
   1.000   0.7122   0.01307   0.00740  -0.1348  0.7222  1.0000  -0.9819   0.0000   0.0000   0.0000   0.4366
   1.500   0.7719   0.01325   0.00744  -0.1359  0.7103  1.0000  -1.0370   0.0000   0.0000   0.0000   0.4228
   2.000   0.8320   0.01324   0.00729  -0.1368  0.6978  1.0000  -1.0979   0.0000   0.0000   0.0000   0.4104
   2.500   0.8893   0.01337   0.00733  -0.1371  0.6846  1.0000  -1.1622   0.0000   0.0000   0.0000   0.3996
   3.000   0.9481   0.01330   0.00714  -0.1375  0.6704  1.0000  -1.2288   0.0000   0.0000   0.0000   0.3897
   3.500   1.0025   0.01350   0.00733  -0.1373  0.6552  1.0000  -1.2958   0.0000   0.0000   0.0000   0.3811
   4.000   1.0606   0.01348   0.00718  -0.1375  0.6397  1.0000  -1.3751   0.0000   0.0000   0.0000   0.3731
   4.500   1.1138   0.01359   0.00730  -0.1370  0.6213  1.0000  -1.4522   0.0000   0.0000   0.0000   0.3657
   5.000   1.1661   0.01386   0.00757  -0.1364  0.6022  1.0000  -1.5414   0.0000   0.0000   0.0000   0.3590
   5.500   1.2181   0.01411   0.00779  -0.1357  0.5811  1.0000  -1.6369   0.0000   0.0000   0.0000   0.3528
   6.000   1.2686   0.01445   0.00810  -0.1348  0.5582  1.0000  -1.7514   0.0000   0.0000   0.0000   0.3469
   6.500   1.3170   0.01491   0.00853  -0.1335  0.5338  1.0000  -1.8712   0.0000   0.0000   0.0000   0.3413
   7.000   1.3624   0.01547   0.00907  -0.1318  0.5063  1.0000  -2.0052   0.0000   0.0000   0.0000   0.3359
   7.500   1.4056   0.01617   0.00975  -0.1298  0.4789  1.0000  -2.1545   0.0000   0.0000   0.0000   0.3308
   8.000   1.4440   0.01700   0.01051  -0.1271  0.4483  1.0000  -2.3075   0.0000   0.0000   0.0000   0.3256
   8.500   1.4788   0.01801   0.01147  -0.1239  0.4189  1.0000  -2.5003   0.0000   0.0000   0.0000   0.3206
   9.000   1.5078   0.01919   0.01259  -0.1199  0.3912  1.0000  -2.7273   0.0000   0.0000   0.0000   0.3155
   9.500   1.5295   0.02058   0.01400  -0.1150  0.3614  1.0000  -2.9814   0.0000   0.0000   0.0000   0.3104
  10.000   1.5484   0.02229   0.01573  -0.1103  0.3326  1.0000  -3.2325   0.0000   0.0000   0.0000   0.3055
  10.500   1.5656   0.02434   0.01782  -0.1058  0.3059  1.0000  -3.4830   0.0000   0.0000   0.0000   0.3010
  11.000   1.5791   0.02681   0.02029  -0.1015  0.2786  1.0000  -3.7257   0.0000   0.0000   0.0000   0.2968
  11.500   1.5886   0.02977   0.02323  -0.0973  0.2514  1.0000  -3.9617   0.0000   0.0000   0.0000   0.2928
  12.000   1.5945   0.03324   0.02668  -0.0934  0.2244  1.0000  -4.1910   0.0000   0.0000   0.0000   0.2891
  12.500   1.5974   0.03717   0.03060  -0.0897  0.1989  1.0000  -4.4098   0.0000   0.0000   0.0000   0.2857
  13.000   1.5981   0.04155   0.03501  -0.0864  0.1749  1.0000  -4.6205   0.0000   0.0000   0.0000   0.2825
  13.500   1.5965   0.04644   0.03992  -0.0835  0.1528  1.0000  -4.8211   0.0000   0.0000   0.0000   0.2797
  14.000   1.5947   0.05170   0.04524  -0.0811  0.1332  1.0000  -5.0195   0.0000   0.0000   0.0000   0.2772
  14.500   1.5911   0.05740   0.05103  -0.0791  0.1162  1.0000  -5.2077   0.0000   0.0000   0.0000   0.2750
  15.000   1.5832   0.06391   0.05760  -0.0776  0.1016  1.0000  -5.3723   0.0000   0.0000   0.0000   0.2732


