xflr5 v6.59

 Calculated polar for: revR_15_revT

 1 1 Reynolds number fixed          Mach number fixed         

 xtrf =   1.000 (top)        1.000 (bottom)
 Mach =   0.000     Re =     0.215 e 6     Ncrit =   9.000

  alpha     CL        CD       CDp       Cm    Top Xtr Bot Xtr   Cpmin    Chinge    XCp    
 ------- -------- --------- --------- -------- ------- ------- -------- --------- ---------
  -5.000  -0.2240   0.01594   0.00866  -0.0766  0.9261  0.0740  -2.5203   0.0000   0.0000   0.0000  -0.1029
  -4.500  -0.1571   0.01420   0.00692  -0.0790  0.9175  0.1057  -2.1519   0.0000   0.0000   0.0000  -0.2660
  -4.000  -0.1050   0.01317   0.00613  -0.0784  0.9020  0.1722  -1.8272   0.0000   0.0000   0.0000  -0.5143
  -3.500  -0.0512   0.01224   0.00564  -0.0783  0.8882  0.2821  -1.4964   0.0000   0.0000   0.0000  -1.3106
  -3.000   0.0016   0.01139   0.00523  -0.0777  0.8744  0.4175  -1.2217   0.0000   0.0000   0.0000  50.9638
  -2.500   0.0473   0.01077   0.00520  -0.0754  0.8587  0.5841  -1.0258   0.0000   0.0000   0.0000   1.8664
  -2.000   0.0977   0.01051   0.00521  -0.0731  0.8445  0.7055  -0.8271   0.0000   0.0000   0.0000   1.0053
  -1.500   0.1460   0.01048   0.00525  -0.0704  0.8286  0.7784  -0.6417   0.0000   0.0000   0.0000   0.7354
  -1.000   0.1931   0.01052   0.00532  -0.0674  0.8130  0.8309  -0.5246   0.0000   0.0000   0.0000   0.6000
  -0.500   0.2423   0.01049   0.00521  -0.0645  0.7980  0.8749  -0.5662   0.0000   0.0000   0.0000   0.5163
   0.000   0.2907   0.01044   0.00511  -0.0617  0.7802  0.9164  -0.6075   0.0000   0.0000   0.0000   0.4613
   0.500   0.3607   0.01044   0.00504  -0.0637  0.7630  0.9482  -0.6678   0.0000   0.0000   0.0000   0.4248
   1.000   0.4511   0.01041   0.00488  -0.0701  0.7444  0.9706  -0.7423   0.0000   0.0000   0.0000   0.4032
   1.500   0.5418   0.01034   0.00468  -0.0771  0.7242  0.9889  -0.8251   0.0000   0.0000   0.0000   0.3895
   2.000   0.6126   0.01021   0.00446  -0.0805  0.7004  1.0000  -0.9013   0.0000   0.0000   0.0000   0.3783
   2.500   0.6446   0.01024   0.00440  -0.0762  0.6769  1.0000  -0.9556   0.0000   0.0000   0.0000   0.3646
   3.000   0.6807   0.01035   0.00444  -0.0725  0.6521  1.0000  -1.0218   0.0000   0.0000   0.0000   0.3524
   3.500   0.7228   0.01052   0.00454  -0.0697  0.6236  1.0000  -1.1038   0.0000   0.0000   0.0000   0.3419
   4.000   0.7690   0.01076   0.00469  -0.0677  0.5938  1.0000  -1.2072   0.0000   0.0000   0.0000   0.3330
   4.500   0.8166   0.01111   0.00489  -0.0659  0.5619  1.0000  -1.3342   0.0000   0.0000   0.0000   0.3252
   5.000   0.8632   0.01149   0.00524  -0.0641  0.5265  1.0000  -1.5050   0.0000   0.0000   0.0000   0.3182
   5.500   0.9088   0.01201   0.00563  -0.0621  0.4887  1.0000  -1.8127   0.0000   0.0000   0.0000   0.3117
   6.000   0.9536   0.01255   0.00612  -0.0601  0.4498  1.0000  -2.1324   0.0000   0.0000   0.0000   0.3058
   6.500   0.9968   0.01321   0.00670  -0.0578  0.4102  1.0000  -2.4613   0.0000   0.0000   0.0000   0.3003
   7.000   1.0368   0.01398   0.00734  -0.0551  0.3665  1.0000  -2.7932   0.0000   0.0000   0.0000   0.2948
   7.500   1.0744   0.01486   0.00814  -0.0521  0.3234  1.0000  -3.1278   0.0000   0.0000   0.0000   0.2896
   8.000   1.1087   0.01585   0.00903  -0.0487  0.2770  1.0000  -3.4600   0.0000   0.0000   0.0000   0.2844
   8.500   1.1375   0.01706   0.01007  -0.0446  0.2266  1.0000  -3.7864   0.0000   0.0000   0.0000   0.2790
   9.000   1.1585   0.01848   0.01130  -0.0393  0.1743  1.0000  -4.0957   0.0000   0.0000   0.0000   0.2731
   9.500   1.1718   0.02023   0.01286  -0.0332  0.1290  1.0000  -4.3737   0.0000   0.0000   0.0000   0.2668
  10.000   1.1817   0.02236   0.01479  -0.0274  0.0941  1.0000  -4.6343   0.0000   0.0000   0.0000   0.2609
  10.500   1.1901   0.02483   0.01721  -0.0220  0.0719  1.0000  -4.8761   0.0000   0.0000   0.0000   0.2556
  11.000   1.2030   0.02729   0.01974  -0.0179  0.0571  1.0000  -5.1295   0.0000   0.0000   0.0000   0.2511
  11.500   1.2086   0.03051   0.02311  -0.0137  0.0449  1.0000  -5.3114   0.0000   0.0000   0.0000   0.2468
  12.000   1.1969   0.03557   0.02823  -0.0093  0.0356  1.0000  -5.3536   0.0000   0.0000   0.0000   0.2424
  12.500   1.2055   0.03936   0.03226  -0.0068  0.0315  1.0000  -5.5049   0.0000   0.0000   0.0000   0.2394
  13.000   1.2110   0.04373   0.03686  -0.0049  0.0287  1.0000  -5.6516   0.0000   0.0000   0.0000   0.2369
  13.500   1.2152   0.04855   0.04186  -0.0034  0.0270  1.0000  -5.7946   0.0000   0.0000   0.0000   0.2348
  14.000   1.2189   0.05407   0.04761  -0.0023  0.0256  1.0000  -5.9019   0.0000   0.0000   0.0000   0.2330
  14.500   1.2191   0.06075   0.05466  -0.0017  0.0248  1.0000  -5.9526   0.0000   0.0000   0.0000   0.2316
  15.000   1.2092   0.06900   0.06334  -0.0023  0.0244  1.0000  -5.9450   0.0000   0.0000   0.0000   0.2313


