xflr5 v6.59

 Calculated polar for: revR_40_revT

 1 1 Reynolds number fixed          Mach number fixed         

 xtrf =   1.000 (top)        1.000 (bottom)
 Mach =   0.000     Re =     0.155 e 6     Ncrit =   9.000

  alpha     CL        CD       CDp       Cm    Top Xtr Bot Xtr   Cpmin    Chinge    XCp    
 ------- -------- --------- --------- -------- ------- ------- -------- --------- ---------
  -5.000  -0.1343   0.02030   0.01257  -0.1019  0.9162  0.0833  -2.4058   0.0000   0.0000   0.0000  -0.5297
  -4.500  -0.0749   0.01861   0.01078  -0.1027  0.9046  0.1037  -2.1109   0.0000   0.0000   0.0000  -1.1538
  -4.000  -0.0053   0.01718   0.00951  -0.1054  0.8973  0.1570  -1.7756   0.0000   0.0000   0.0000  -20.1034
  -3.500   0.0427   0.01634   0.00898  -0.1045  0.8817  0.2433  -1.4969   0.0000   0.0000   0.0000   2.7372
  -3.000   0.1052   0.01534   0.00844  -0.1056  0.8730  0.3703  -1.2510   0.0000   0.0000   0.0000   1.2683
  -2.500   0.1514   0.01479   0.00850  -0.1039  0.8574  0.5256  -1.0507   0.0000   0.0000   0.0000   0.9443
  -2.000   0.2034   0.01446   0.00858  -0.1018  0.8470  0.6742  -0.8436   0.0000   0.0000   0.0000   0.7552
  -1.500   0.2473   0.01448   0.00875  -0.0980  0.8316  0.7733  -0.6684   0.0000   0.0000   0.0000   0.6488
  -1.000   0.2885   0.01454   0.00885  -0.0933  0.8179  0.8447  -0.6058   0.0000   0.0000   0.0000   0.5746
  -0.500   0.3308   0.01434   0.00859  -0.0884  0.8051  0.9061  -0.6415   0.0000   0.0000   0.0000   0.5175
   0.000   0.3982   0.01420   0.00837  -0.0897  0.7905  0.9681  -0.6936   0.0000   0.0000   0.0000   0.4744
   0.500   0.4962   0.01374   0.00766  -0.0976  0.7788  1.0000  -0.7681   0.0000   0.0000   0.0000   0.4450
   1.000   0.5348   0.01391   0.00773  -0.0951  0.7602  1.0000  -0.8091   0.0000   0.0000   0.0000   0.4257
   1.500   0.5865   0.01403   0.00773  -0.0946  0.7435  1.0000  -0.8644   0.0000   0.0000   0.0000   0.4085
   2.000   0.6443   0.01394   0.00747  -0.0945  0.7277  1.0000  -0.9266   0.0000   0.0000   0.0000   0.3934
   2.500   0.6997   0.01394   0.00737  -0.0942  0.7091  1.0000  -0.9898   0.0000   0.0000   0.0000   0.3807
   3.000   0.7535   0.01402   0.00741  -0.0936  0.6886  1.0000  -1.0607   0.0000   0.0000   0.0000   0.3698
   3.500   0.8079   0.01408   0.00743  -0.0930  0.6672  1.0000  -1.1366   0.0000   0.0000   0.0000   0.3602
   4.000   0.8623   0.01415   0.00745  -0.0923  0.6444  1.0000  -1.2248   0.0000   0.0000   0.0000   0.3516
   4.500   0.9162   0.01428   0.00755  -0.0916  0.6205  1.0000  -1.3262   0.0000   0.0000   0.0000   0.3440
   5.000   0.9693   0.01442   0.00764  -0.0908  0.5933  1.0000  -1.4456   0.0000   0.0000   0.0000   0.3370
   5.500   1.0223   0.01471   0.00783  -0.0899  0.5649  1.0000  -1.5924   0.0000   0.0000   0.0000   0.3308
   6.000   1.0708   0.01515   0.00831  -0.0885  0.5315  1.0000  -1.7580   0.0000   0.0000   0.0000   0.3249
   6.500   1.1193   0.01568   0.00875  -0.0871  0.4969  1.0000  -2.0327   0.0000   0.0000   0.0000   0.3194
   7.000   1.1651   0.01636   0.00943  -0.0854  0.4600  1.0000  -2.3427   0.0000   0.0000   0.0000   0.3142
   7.500   1.2089   0.01720   0.01014  -0.0834  0.4221  1.0000  -2.6608   0.0000   0.0000   0.0000   0.3092
   8.000   1.2486   0.01811   0.01108  -0.0809  0.3811  1.0000  -2.9762   0.0000   0.0000   0.0000   0.3043
   8.500   1.2857   0.01924   0.01218  -0.0782  0.3416  1.0000  -3.3023   0.0000   0.0000   0.0000   0.2997
   9.000   1.3167   0.02060   0.01348  -0.0748  0.3002  1.0000  -3.6206   0.0000   0.0000   0.0000   0.2949
   9.500   1.3397   0.02222   0.01499  -0.0704  0.2574  1.0000  -3.9152   0.0000   0.0000   0.0000   0.2899
  10.000   1.3565   0.02418   0.01691  -0.0655  0.2155  1.0000  -4.1877   0.0000   0.0000   0.0000   0.2849
  10.500   1.3681   0.02679   0.01945  -0.0609  0.1764  1.0000  -4.4364   0.0000   0.0000   0.0000   0.2802
  11.000   1.3705   0.03038   0.02282  -0.0562  0.1414  1.0000  -4.6423   0.0000   0.0000   0.0000   0.2759
  11.500   1.3766   0.03412   0.02659  -0.0527  0.1114  1.0000  -4.8554   0.0000   0.0000   0.0000   0.2723
  12.000   1.3783   0.03851   0.03105  -0.0495  0.0895  1.0000  -5.0416   0.0000   0.0000   0.0000   0.2690
  12.500   1.3766   0.04350   0.03607  -0.0467  0.0736  1.0000  -5.2003   0.0000   0.0000   0.0000   0.2661
  13.000   1.3738   0.04886   0.04149  -0.0446  0.0617  1.0000  -5.3456   0.0000   0.0000   0.0000   0.2637
  13.500   1.3743   0.05422   0.04709  -0.0423  0.0535  1.0000  -5.4638   0.0000   0.0000   0.0000   0.2611
  14.000   1.3734   0.05989   0.05296  -0.0409  0.0472  1.0000  -5.5814   0.0000   0.0000   0.0000   0.2592
  14.500   1.3708   0.06639   0.05957  -0.0376  0.0412  1.0000  -5.6091   0.0000   0.0000   0.0000   0.2559
  15.000   1.3698   0.07270   0.06628  -0.0371  0.0395  1.0000  -5.6976   0.0000   0.0000   0.0000   0.2546


