xflr5 v6.59

 Calculated polar for: revR_90_revT

 1 1 Reynolds number fixed          Mach number fixed         

 xtrf =   1.000 (top)        1.000 (bottom)
 Mach =   0.000     Re =     0.205 e 6     Ncrit =   9.000

  alpha     CL        CD       CDp       Cm    Top Xtr Bot Xtr   Cpmin    Chinge    XCp    
 ------- -------- --------- --------- -------- ------- ------- -------- --------- ---------
  -5.000   0.0741   0.00138  -0.00509  -0.1333  0.8150  0.0663  -2.0119   0.0000   0.0000   0.0000   2.0798
  -4.500   0.1183   0.00114  -0.00550  -0.1319  0.8035  0.0750  -1.8121   0.0000   0.0000   0.0000   1.3827
  -4.000   0.2015   0.01697   0.00951  -0.1480  0.8189  0.0994  -1.7826   0.0000   0.0000   0.0000   0.9994
  -3.500   0.2537   0.01637   0.00902  -0.1479  0.8090  0.1400  -1.5615   0.0000   0.0000   0.0000   0.8429
  -3.000   0.3093   0.01571   0.00858  -0.1481  0.7994  0.2092  -1.3325   0.0000   0.0000   0.0000   0.7359
  -2.500   0.3692   0.01517   0.00819  -0.1488  0.7922  0.2911  -1.0980   0.0000   0.0000   0.0000   0.6577
  -1.500   0.4774   0.01464   0.00825  -0.1486  0.7723  0.4959  -0.7865   0.0000   0.0000   0.0000   0.5630
  -1.000   0.5349   0.01425   0.00817  -0.1482  0.7648  0.6305  -0.8303   0.0000   0.0000   0.0000   0.5276
  -0.500   0.5802   0.01427   0.00853  -0.1457  0.7524  0.7431  -0.8673   0.0000   0.0000   0.0000   0.5008
   0.000   0.6279   0.01402   0.00836  -0.1427  0.7431  0.8293  -0.9074   0.0000   0.0000   0.0000   0.4761
   0.500   0.6671   0.01398   0.00838  -0.1383  0.7333  0.9068  -0.9423   0.0000   0.0000   0.0000   0.4554
   1.000   0.7285   0.01370   0.00802  -0.1392  0.7208  1.0000  -0.9967   0.0000   0.0000   0.0000   0.4384
   1.500   0.7939   0.01370   0.00777  -0.1410  0.7114  1.0000  -1.0578   0.0000   0.0000   0.0000   0.4242
   2.000   0.8484   0.01394   0.00798  -0.1412  0.6978  1.0000  -1.1119   0.0000   0.0000   0.0000   0.4124
   2.500   0.9123   0.01381   0.00763  -0.1424  0.6868  1.0000  -1.1825   0.0000   0.0000   0.0000   0.4013
   3.000   0.9646   0.01396   0.00780  -0.1419  0.6710  1.0000  -1.2465   0.0000   0.0000   0.0000   0.3918
   3.500   1.0238   0.01396   0.00769  -0.1424  0.6581  1.0000  -1.3174   0.0000   0.0000   0.0000   0.3830
   4.000   1.0781   0.01403   0.00775  -0.1421  0.6419  1.0000  -1.3866   0.0000   0.0000   0.0000   0.3751
   4.500   1.1318   0.01415   0.00785  -0.1416  0.6240  1.0000  -1.4681   0.0000   0.0000   0.0000   0.3677
   5.000   1.1872   0.01427   0.00789  -0.1414  0.6067  1.0000  -1.5530   0.0000   0.0000   0.0000   0.3610
   5.500   1.2399   0.01451   0.00809  -0.1408  0.5875  1.0000  -1.6506   0.0000   0.0000   0.0000   0.3548
   6.000   1.2890   0.01484   0.00843  -0.1397  0.5648  1.0000  -1.7514   0.0000   0.0000   0.0000   0.3489
   6.500   1.3369   0.01527   0.00885  -0.1384  0.5405  1.0000  -1.8745   0.0000   0.0000   0.0000   0.3432
   7.000   1.3830   0.01582   0.00939  -0.1368  0.5157  1.0000  -1.9993   0.0000   0.0000   0.0000   0.3379
   7.500   1.4258   0.01649   0.01001  -0.1347  0.4880  1.0000  -2.1496   0.0000   0.0000   0.0000   0.3327
   8.000   1.4655   0.01732   0.01079  -0.1322  0.4604  1.0000  -2.3001   0.0000   0.0000   0.0000   0.3276
   8.500   1.4997   0.01831   0.01173  -0.1289  0.4311  1.0000  -2.4564   0.0000   0.0000   0.0000   0.3225
   9.000   1.5265   0.01944   0.01287  -0.1245  0.4025  1.0000  -2.6500   0.0000   0.0000   0.0000   0.3173
   9.500   1.5500   0.02082   0.01425  -0.1198  0.3755  1.0000  -2.8803   0.0000   0.0000   0.0000   0.3123
  10.000   1.5677   0.02254   0.01600  -0.1149  0.3468  1.0000  -3.1201   0.0000   0.0000   0.0000   0.3073
  10.500   1.5828   0.02464   0.01810  -0.1102  0.3189  1.0000  -3.3564   0.0000   0.0000   0.0000   0.3027
  11.000   1.5974   0.02705   0.02052  -0.1059  0.2936  1.0000  -3.5951   0.0000   0.0000   0.0000   0.2985
  11.500   1.6084   0.02988   0.02337  -0.1017  0.2682  1.0000  -3.8273   0.0000   0.0000   0.0000   0.2945
  12.000   1.6148   0.03324   0.02673  -0.0977  0.2419  1.0000  -4.0521   0.0000   0.0000   0.0000   0.2908
  12.500   1.6180   0.03707   0.03059  -0.0939  0.2163  1.0000  -4.2668   0.0000   0.0000   0.0000   0.2873
  13.000   1.6190   0.04134   0.03487  -0.0905  0.1923  1.0000  -4.4739   0.0000   0.0000   0.0000   0.2841
  13.500   1.6183   0.04605   0.03963  -0.0874  0.1697  1.0000  -4.6740   0.0000   0.0000   0.0000   0.2812
  14.000   1.6156   0.05132   0.04493  -0.0849  0.1493  1.0000  -4.8649   0.0000   0.0000   0.0000   0.2786
  14.500   1.6102   0.05712   0.05077  -0.0827  0.1313  1.0000  -5.0424   0.0000   0.0000   0.0000   0.2763


