xflr5 v6.59

 Calculated polar for: revR_75_revT

 1 1 Reynolds number fixed          Mach number fixed         

 xtrf =   1.000 (top)        1.000 (bottom)
 Mach =   0.000     Re =     0.335 e 6     Ncrit =   9.000

  alpha     CL        CD       CDp       Cm    Top Xtr Bot Xtr   Cpmin    Chinge    XCp    
 ------- -------- --------- --------- -------- ------- ------- -------- --------- ---------
  -5.000   0.0374   0.01381   0.00704  -0.1323  0.8126  0.0532  -2.3057   0.0000   0.0000   0.0000   3.8713
  -4.500   0.0933   0.01308   0.00621  -0.1324  0.8043  0.0648  -2.0279   0.0000   0.0000   0.0000   1.6988
  -4.000   0.1494   0.01239   0.00545  -0.1326  0.7962  0.0872  -1.7814   0.0000   0.0000   0.0000   1.1542
  -3.500   0.2046   0.01169   0.00490  -0.1327  0.7866  0.1334  -1.5345   0.0000   0.0000   0.0000   0.9091
  -3.000   0.2613   0.01118   0.00457  -0.1331  0.7781  0.2024  -1.2909   0.0000   0.0000   0.0000   0.7660
  -2.500   0.3177   0.01088   0.00445  -0.1334  0.7698  0.2767  -1.0586   0.0000   0.0000   0.0000   0.6742
  -2.000   0.3736   0.01049   0.00430  -0.1336  0.7598  0.3654  -0.8448   0.0000   0.0000   0.0000   0.6101
  -1.500   0.4305   0.01011   0.00417  -0.1338  0.7504  0.4774  -0.7418   0.0000   0.0000   0.0000   0.5621
  -1.000   0.4852   0.00983   0.00423  -0.1335  0.7402  0.5918  -0.7832   0.0000   0.0000   0.0000   0.5255
  -0.500   0.5390   0.00961   0.00430  -0.1327  0.7304  0.7095  -0.8248   0.0000   0.0000   0.0000   0.4956
   0.000   0.5920   0.00959   0.00436  -0.1316  0.7197  0.7823  -0.8662   0.0000   0.0000   0.0000   0.4709
   0.500   0.6425   0.00949   0.00435  -0.1299  0.7078  0.8403  -0.9121   0.0000   0.0000   0.0000   0.4500
   1.000   0.6905   0.00948   0.00434  -0.1276  0.6973  0.8950  -0.9610   0.0000   0.0000   0.0000   0.4319
   1.500   0.7416   0.00925   0.00418  -0.1260  0.6837  0.9683  -1.0121   0.0000   0.0000   0.0000   0.4164
   2.000   0.8052   0.00932   0.00412  -0.1278  0.6701  1.0000  -1.0786   0.0000   0.0000   0.0000   0.4046
   2.500   0.8630   0.00940   0.00411  -0.1283  0.6549  1.0000  -1.1440   0.0000   0.0000   0.0000   0.3940
   3.000   0.9195   0.00957   0.00423  -0.1286  0.6389  1.0000  -1.2091   0.0000   0.0000   0.0000   0.3846
   3.500   0.9751   0.00974   0.00429  -0.1286  0.6204  1.0000  -1.2792   0.0000   0.0000   0.0000   0.3760
   4.000   1.0301   0.00999   0.00444  -0.1285  0.6019  1.0000  -1.3577   0.0000   0.0000   0.0000   0.3683
   4.500   1.0835   0.01025   0.00470  -0.1282  0.5815  1.0000  -1.4376   0.0000   0.0000   0.0000   0.3612
   5.000   1.1354   0.01060   0.00497  -0.1276  0.5568  1.0000  -1.5338   0.0000   0.0000   0.0000   0.3546
   5.500   1.1866   0.01102   0.00535  -0.1269  0.5328  1.0000  -1.6354   0.0000   0.0000   0.0000   0.3485
   6.000   1.2355   0.01155   0.00578  -0.1259  0.5056  1.0000  -1.7594   0.0000   0.0000   0.0000   0.3428
   6.500   1.2828   0.01215   0.00632  -0.1246  0.4772  1.0000  -1.8836   0.0000   0.0000   0.0000   0.3373
   7.000   1.3285   0.01279   0.00694  -0.1231  0.4479  1.0000  -2.0443   0.0000   0.0000   0.0000   0.3321
   7.500   1.3706   0.01359   0.00766  -0.1211  0.4148  1.0000  -2.2049   0.0000   0.0000   0.0000   0.3271
   8.000   1.4103   0.01449   0.00851  -0.1187  0.3858  1.0000  -2.4093   0.0000   0.0000   0.0000   0.3222
   8.500   1.4439   0.01556   0.00948  -0.1154  0.3538  1.0000  -2.6439   0.0000   0.0000   0.0000   0.3172
   9.500   1.5008   0.01815   0.01200  -0.1078  0.2934  1.0000  -3.2228   0.0000   0.0000   0.0000   0.3075
  10.000   1.5213   0.02002   0.01378  -0.1036  0.2628  1.0000  -3.4970   0.0000   0.0000   0.0000   0.3028
  10.500   1.5411   0.02215   0.01585  -0.0997  0.2325  1.0000  -3.7748   0.0000   0.0000   0.0000   0.2986
  11.000   1.5595   0.02454   0.01822  -0.0962  0.2042  1.0000  -4.0531   0.0000   0.0000   0.0000   0.2946
  11.500   1.5737   0.02741   0.02105  -0.0926  0.1759  1.0000  -4.3202   0.0000   0.0000   0.0000   0.2909
  12.000   1.5833   0.03079   0.02437  -0.0891  0.1499  1.0000  -4.5721   0.0000   0.0000   0.0000   0.2874
  12.500   1.5899   0.03458   0.02812  -0.0857  0.1263  1.0000  -4.8224   0.0000   0.0000   0.0000   0.2840
  13.000   1.5942   0.03874   0.03227  -0.0827  0.1063  1.0000  -5.0649   0.0000   0.0000   0.0000   0.2809
  13.500   1.5980   0.04314   0.03672  -0.0800  0.0898  1.0000  -5.3061   0.0000   0.0000   0.0000   0.2781
  14.000   1.5988   0.04812   0.04175  -0.0776  0.0756  1.0000  -5.5325   0.0000   0.0000   0.0000   0.2756
  14.500   1.5902   0.05441   0.04805  -0.0756  0.0625  1.0000  -5.7088   0.0000   0.0000   0.0000   0.2735
  15.000   1.5931   0.05972   0.05355  -0.0744  0.0542  1.0000  -5.9447   0.0000   0.0000   0.0000   0.2715


