xflr5 v6.59

 Calculated polar for: revR_75_revT

 1 1 Reynolds number fixed          Mach number fixed         

 xtrf =   1.000 (top)        1.000 (bottom)
 Mach =   0.000     Re =     0.075 e 6     Ncrit =   9.000

  alpha     CL        CD       CDp       Cm    Top Xtr Bot Xtr   Cpmin    Chinge    XCp    
 ------- -------- --------- --------- -------- ------- ------- -------- --------- ---------
  -5.000  -0.3169   0.06477   0.05960  -0.0723  0.9479  0.1636  -1.9884   0.0000   0.0000   0.0000   0.0125
  -4.500  -0.2256   0.04381   0.03618  -0.0944  0.9406  0.1115  -2.3482   0.0000   0.0000   0.0000  -0.1826
  -4.000  -0.1525   0.03910   0.03094  -0.1006  0.9299  0.1218  -2.1422   0.0000   0.0000   0.0000  -0.4285
  -3.500  -0.0651   0.03599   0.02706  -0.1076  0.9199  0.1421  -1.9229   0.0000   0.0000   0.0000  -1.4454
  -3.000  -0.0060   0.03464   0.02554  -0.1094  0.9066  0.1768  -1.7381   0.0000   0.0000   0.0000  -18.2565
  -2.500   0.0811   0.03350   0.02453  -0.1157  0.8960  0.2623  -1.4997   0.0000   0.0000   0.0000   1.7012
  -2.000   0.1285   0.03313   0.02468  -0.1156  0.8812  0.3740  -1.3144   0.0000   0.0000   0.0000   1.1632
  -1.500   0.1974   0.03293   0.02525  -0.1178  0.8685  0.5590  -1.0795   0.0000   0.0000   0.0000   0.8541
  -1.000   0.2318   0.03321   0.02619  -0.1123  0.8531  0.7541  -0.9139   0.0000   0.0000   0.0000   0.7391
  -0.500   0.2444   0.03332   0.02652  -0.1032  0.8353  1.0000  -0.7966   0.0000   0.0000   0.0000   0.6749
   0.000   0.3462   0.03424   0.02672  -0.1123  0.8233  1.0000  -0.6595   0.0000   0.0000   0.0000   0.5749
   0.500   0.3861   0.03572   0.02788  -0.1120  0.8032  1.0000  -0.6883   0.0000   0.0000   0.0000   0.5397
   1.000   0.4355   0.03726   0.02915  -0.1127  0.7845  1.0000  -0.7273   0.0000   0.0000   0.0000   0.5072
   1.500   0.5177   0.03786   0.02947  -0.1165  0.7715  1.0000  -0.7938   0.0000   0.0000   0.0000   0.4727
   2.000   0.5652   0.03913   0.03058  -0.1163  0.7516  1.0000  -0.8360   0.0000   0.0000   0.0000   0.4526
   3.000   0.6503   0.04245   0.03373  -0.1147  0.7110  1.0000  -0.9256   0.0000   0.0000   0.0000   0.4218
   3.500   0.7391   0.04159   0.03280  -0.1173  0.7002  1.0000  -1.0149   0.0000   0.0000   0.0000   0.4035
   4.000   0.7751   0.04329   0.03450  -0.1155  0.6778  1.0000  -1.0607   0.0000   0.0000   0.0000   0.3931
   5.000   0.9166   0.04180   0.03310  -0.1159  0.6501  1.0000  -1.2436   0.0000   0.0000   0.0000   0.3693
   5.500   0.9295   0.04503   0.03640  -0.1122  0.6217  1.0000  -1.2802   0.0000   0.0000   0.0000   0.3629
   7.000   1.1594   0.03840   0.03021  -0.1114  0.5782  1.0000  -1.7063   0.0000   0.0000   0.0000   0.3362
   7.500   1.2146   0.03764   0.02961  -0.1095  0.5557  1.0000  -1.8519   0.0000   0.0000   0.0000   0.3296
   8.000   1.2782   0.03641   0.02855  -0.1085  0.5328  1.0000  -2.0466   0.0000   0.0000   0.0000   0.3235
   8.500   1.3556   0.03429   0.02652  -0.1087  0.5071  1.0000  -2.3120   0.0000   0.0000   0.0000   0.3180
   9.000   1.4222   0.03338   0.02561  -0.1083  0.4774  1.0000  -2.6095   0.0000   0.0000   0.0000   0.3131
   9.500   1.4489   0.03460   0.02705  -0.1037  0.4447  1.0000  -2.8509   0.0000   0.0000   0.0000   0.3077
  10.000   1.4966   0.03472   0.02710  -0.1014  0.4099  1.0000  -3.2082   0.0000   0.0000   0.0000   0.3030
  10.500   1.5272   0.03603   0.02842  -0.0975  0.3762  1.0000  -3.5103   0.0000   0.0000   0.0000   0.2982
  11.000   1.5379   0.03795   0.03042  -0.0913  0.3433  1.0000  -3.7448   0.0000   0.0000   0.0000   0.2929
  11.500   1.5647   0.03941   0.03161  -0.0872  0.3075  1.0000  -4.0512   0.0000   0.0000   0.0000   0.2883
  12.000   1.5556   0.04269   0.03513  -0.0802  0.2785  1.0000  -4.2093   0.0000   0.0000   0.0000   0.2832
  12.500   1.5514   0.04637   0.03890  -0.0746  0.2495  1.0000  -4.3825   0.0000   0.0000   0.0000   0.2788
  13.000   1.5473   0.05043   0.04298  -0.0698  0.2217  1.0000  -4.5539   0.0000   0.0000   0.0000   0.2748
  13.500   1.5398   0.05501   0.04757  -0.0656  0.1964  1.0000  -4.7093   0.0000   0.0000   0.0000   0.2713
  14.000   1.5299   0.06038   0.05303  -0.0621  0.1741  1.0000  -4.8430   0.0000   0.0000   0.0000   0.2682
  14.500   1.5181   0.06646   0.05926  -0.0592  0.1549  1.0000  -4.9613   0.0000   0.0000   0.0000   0.2656
  15.000   1.5112   0.07272   0.06563  -0.0568  0.1379  1.0000  -5.0901   0.0000   0.0000   0.0000   0.2632


