xflr5 v6.59

 Calculated polar for: revR_35_revT

 1 1 Reynolds number fixed          Mach number fixed         

 xtrf =   1.000 (top)        1.000 (bottom)
 Mach =   0.000     Re =     0.390 e 6     Ncrit =   9.000

  alpha     CL        CD       CDp       Cm    Top Xtr Bot Xtr   Cpmin    Chinge    XCp    
 ------- -------- --------- --------- -------- ------- ------- -------- --------- ---------
  -5.000  -0.1273   0.01223   0.00563  -0.0945  0.8476  0.0546  -2.4829   0.0000   0.0000   0.0000  -0.5125
  -4.500  -0.0743   0.01128   0.00461  -0.0941  0.8350  0.0735  -2.1440   0.0000   0.0000   0.0000  -1.0464
  -4.000  -0.0199   0.01061   0.00399  -0.0939  0.8236  0.1122  -1.8107   0.0000   0.0000   0.0000  -4.5640
  -3.500   0.0345   0.01007   0.00362  -0.0937  0.8118  0.1718  -1.4893   0.0000   0.0000   0.0000   3.0139
  -3.000   0.0894   0.00958   0.00335  -0.0937  0.8010  0.2566  -1.2453   0.0000   0.0000   0.0000   1.3132
  -2.500   0.1435   0.00906   0.00313  -0.0936  0.7882  0.3530  -1.0270   0.0000   0.0000   0.0000   0.9091
  -2.000   0.1981   0.00863   0.00299  -0.0934  0.7769  0.4725  -0.8169   0.0000   0.0000   0.0000   0.7251
  -1.500   0.2508   0.00813   0.00298  -0.0927  0.7643  0.6186  -0.6248   0.0000   0.0000   0.0000   0.6212
  -1.000   0.3045   0.00800   0.00300  -0.0917  0.7521  0.7105  -0.6173   0.0000   0.0000   0.0000   0.5517
  -0.500   0.3576   0.00791   0.00301  -0.0906  0.7377  0.7741  -0.6590   0.0000   0.0000   0.0000   0.5029
   0.000   0.4106   0.00792   0.00305  -0.0895  0.7248  0.8187  -0.7038   0.0000   0.0000   0.0000   0.4667
   0.500   0.4625   0.00789   0.00302  -0.0881  0.7097  0.8563  -0.7518   0.0000   0.0000   0.0000   0.4385
   1.000   0.5122   0.00786   0.00303  -0.0862  0.6932  0.8950  -0.8012   0.0000   0.0000   0.0000   0.4158
   1.500   0.5606   0.00782   0.00299  -0.0839  0.6767  0.9359  -0.8562   0.0000   0.0000   0.0000   0.3967
   2.000   0.6278   0.00780   0.00289  -0.0860  0.6576  0.9808  -0.9241   0.0000   0.0000   0.0000   0.3834
   2.500   0.6912   0.00790   0.00289  -0.0879  0.6355  1.0000  -0.9943   0.0000   0.0000   0.0000   0.3731
   3.000   0.7462   0.00809   0.00299  -0.0879  0.6126  1.0000  -1.0678   0.0000   0.0000   0.0000   0.3633
   3.500   0.8006   0.00834   0.00314  -0.0878  0.5875  1.0000  -1.1465   0.0000   0.0000   0.0000   0.3546
   4.000   0.8544   0.00862   0.00335  -0.0875  0.5589  1.0000  -1.2379   0.0000   0.0000   0.0000   0.3468
   4.500   0.9074   0.00898   0.00363  -0.0871  0.5294  1.0000  -1.3455   0.0000   0.0000   0.0000   0.3399
   5.000   0.9590   0.00944   0.00396  -0.0864  0.4967  1.0000  -1.4756   0.0000   0.0000   0.0000   0.3335
   5.500   1.0102   0.00992   0.00436  -0.0858  0.4625  1.0000  -1.6295   0.0000   0.0000   0.0000   0.3277
   6.000   1.0602   0.01050   0.00484  -0.0849  0.4272  1.0000  -1.8945   0.0000   0.0000   0.0000   0.3223
   6.500   1.1088   0.01116   0.00539  -0.0839  0.3875  1.0000  -2.2151   0.0000   0.0000   0.0000   0.3173
   7.000   1.1554   0.01196   0.00604  -0.0827  0.3460  1.0000  -2.5493   0.0000   0.0000   0.0000   0.3125
   7.500   1.1995   0.01292   0.00681  -0.0812  0.2966  1.0000  -2.8996   0.0000   0.0000   0.0000   0.3080
   8.000   1.2412   0.01403   0.00770  -0.0794  0.2469  1.0000  -3.2551   0.0000   0.0000   0.0000   0.3036
   8.500   1.2814   0.01519   0.00871  -0.0774  0.2068  1.0000  -3.6172   0.0000   0.0000   0.0000   0.2994
   9.000   1.3180   0.01654   0.00990  -0.0750  0.1660  1.0000  -3.9762   0.0000   0.0000   0.0000   0.2952
   9.500   1.3474   0.01813   0.01129  -0.0717  0.1245  1.0000  -4.3154   0.0000   0.0000   0.0000   0.2907
  10.000   1.3738   0.01986   0.01290  -0.0681  0.0941  1.0000  -4.6477   0.0000   0.0000   0.0000   0.2863
  10.500   1.3975   0.02179   0.01478  -0.0645  0.0718  1.0000  -4.9718   0.0000   0.0000   0.0000   0.2821
  11.000   1.4183   0.02404   0.01703  -0.0611  0.0548  1.0000  -5.2818   0.0000   0.0000   0.0000   0.2782
  11.500   1.4323   0.02699   0.02001  -0.0575  0.0404  1.0000  -5.5487   0.0000   0.0000   0.0000   0.2745
  12.000   1.4464   0.03012   0.02319  -0.0546  0.0311  1.0000  -5.8066   0.0000   0.0000   0.0000   0.2711
  12.500   1.4501   0.03437   0.02763  -0.0514  0.0246  1.0000  -5.9648   0.0000   0.0000   0.0000   0.2679
  13.000   1.4554   0.03872   0.03215  -0.0491  0.0216  1.0000  -6.1535   0.0000   0.0000   0.0000   0.2652
  13.500   1.4519   0.04419   0.03780  -0.0470  0.0196  1.0000  -6.2919   0.0000   0.0000   0.0000   0.2629
  14.000   1.4380   0.05107   0.04494  -0.0453  0.0183  1.0000  -6.3535   0.0000   0.0000   0.0000   0.2610
  14.500   1.4192   0.05895   0.05314  -0.0441  0.0174  1.0000  -6.3658   0.0000   0.0000   0.0000   0.2595
  15.000   1.4107   0.06602   0.06046  -0.0437  0.0170  1.0000  -6.4537   0.0000   0.0000   0.0000   0.2584


