xflr5 v6.59

 Calculated polar for: revR_60_revT

 1 1 Reynolds number fixed          Mach number fixed         

 xtrf =   1.000 (top)        1.000 (bottom)
 Mach =   0.000     Re =     0.485 e 6     Ncrit =   9.000

  alpha     CL        CD       CDp       Cm    Top Xtr Bot Xtr   Cpmin    Chinge    XCp    
 ------- -------- --------- --------- -------- ------- ------- -------- --------- ---------
  -5.000  -0.0252   0.01187   0.00541  -0.1170  0.8015  0.0439  -2.4059   0.0000   0.0000   0.0000  -4.4991
  -4.500   0.0295   0.01080   0.00428  -0.1170  0.7927  0.0589  -2.0820   0.0000   0.0000   0.0000   4.3098
  -4.000   0.0854   0.01023   0.00370  -0.1171  0.7831  0.0829  -1.7824   0.0000   0.0000   0.0000   1.6466
  -3.500   0.1417   0.00979   0.00336  -0.1174  0.7742  0.1292  -1.5296   0.0000   0.0000   0.0000   1.0911
  -3.000   0.1977   0.00933   0.00310  -0.1176  0.7650  0.1905  -1.2822   0.0000   0.0000   0.0000   0.8523
  -2.500   0.2541   0.00894   0.00289  -0.1178  0.7553  0.2675  -1.0467   0.0000   0.0000   0.0000   0.7183
  -2.000   0.3103   0.00861   0.00277  -0.1180  0.7451  0.3518  -0.8311   0.0000   0.0000   0.0000   0.6330
  -1.500   0.3665   0.00822   0.00268  -0.1182  0.7355  0.4571  -0.6816   0.0000   0.0000   0.0000   0.5738
  -1.000   0.4223   0.00795   0.00267  -0.1182  0.7250  0.5730  -0.7242   0.0000   0.0000   0.0000   0.5301
  -0.500   0.4768   0.00767   0.00272  -0.1177  0.7133  0.6868  -0.7666   0.0000   0.0000   0.0000   0.4962
   0.000   0.5318   0.00767   0.00277  -0.1172  0.7015  0.7536  -0.8109   0.0000   0.0000   0.0000   0.4689
   0.500   0.5855   0.00760   0.00283  -0.1164  0.6896  0.8077  -0.8597   0.0000   0.0000   0.0000   0.4466
   1.000   0.6388   0.00763   0.00285  -0.1155  0.6757  0.8485  -0.9088   0.0000   0.0000   0.0000   0.4280
   1.500   0.6887   0.00757   0.00287  -0.1137  0.6610  0.8923  -0.9633   0.0000   0.0000   0.0000   0.4118
   2.500   0.8011   0.00757   0.00284  -0.1134  0.6269  1.0000  -1.0875   0.0000   0.0000   0.0000   0.3871
   3.500   0.9134   0.00802   0.00309  -0.1139  0.5859  1.0000  -1.2297   0.0000   0.0000   0.0000   0.3691
   4.000   0.9679   0.00831   0.00330  -0.1138  0.5624  1.0000  -1.3116   0.0000   0.0000   0.0000   0.3614
   4.500   1.0213   0.00867   0.00357  -0.1135  0.5371  1.0000  -1.4014   0.0000   0.0000   0.0000   0.3544
   5.000   1.0737   0.00908   0.00390  -0.1131  0.5095  1.0000  -1.5088   0.0000   0.0000   0.0000   0.3479
   5.500   1.1255   0.00953   0.00428  -0.1125  0.4814  1.0000  -1.6264   0.0000   0.0000   0.0000   0.3420
   6.000   1.1750   0.01010   0.00473  -0.1117  0.4473  1.0000  -1.7667   0.0000   0.0000   0.0000   0.3364
   6.500   1.2230   0.01076   0.00528  -0.1106  0.4158  1.0000  -1.9255   0.0000   0.0000   0.0000   0.3311
   7.000   1.2708   0.01141   0.00587  -0.1095  0.3836  1.0000  -2.1209   0.0000   0.0000   0.0000   0.3262
   7.500   1.3144   0.01228   0.00658  -0.1078  0.3454  1.0000  -2.3694   0.0000   0.0000   0.0000   0.3214
   8.000   1.3580   0.01312   0.00737  -0.1062  0.3146  1.0000  -2.6857   0.0000   0.0000   0.0000   0.3168
   8.500   1.3968   0.01417   0.00828  -0.1039  0.2771  1.0000  -3.0006   0.0000   0.0000   0.0000   0.3122
   9.000   1.4307   0.01533   0.00931  -0.1008  0.2428  1.0000  -3.3100   0.0000   0.0000   0.0000   0.3075
   9.500   1.4604   0.01668   0.01055  -0.0972  0.2092  1.0000  -3.6142   0.0000   0.0000   0.0000   0.3029
  10.000   1.4844   0.01840   0.01214  -0.0933  0.1732  1.0000  -3.9054   0.0000   0.0000   0.0000   0.2983
  10.500   1.5053   0.02045   0.01405  -0.0894  0.1406  1.0000  -4.1961   0.0000   0.0000   0.0000   0.2940
  11.000   1.5228   0.02290   0.01637  -0.0856  0.1122  1.0000  -4.4837   0.0000   0.0000   0.0000   0.2900
  11.500   1.5404   0.02549   0.01892  -0.0822  0.0907  1.0000  -4.7762   0.0000   0.0000   0.0000   0.2863
  12.000   1.5546   0.02849   0.02189  -0.0790  0.0730  1.0000  -5.0580   0.0000   0.0000   0.0000   0.2828
  12.500   1.5690   0.03160   0.02503  -0.0761  0.0602  1.0000  -5.3444   0.0000   0.0000   0.0000   0.2795
  13.000   1.5795   0.03519   0.02872  -0.0733  0.0492  1.0000  -5.6123   0.0000   0.0000   0.0000   0.2765
  13.500   1.5782   0.04001   0.03356  -0.0703  0.0385  1.0000  -5.8236   0.0000   0.0000   0.0000   0.2736
  14.000   1.5881   0.04399   0.03771  -0.0683  0.0340  1.0000  -6.1021   0.0000   0.0000   0.0000   0.2710
  14.500   1.5842   0.04963   0.04342  -0.0663  0.0284  1.0000  -6.3019   0.0000   0.0000   0.0000   0.2688
  15.000   1.5743   0.05639   0.05040  -0.0649  0.0247  1.0000  -6.4490   0.0000   0.0000   0.0000   0.2670


