xflr5 v6.59

 Calculated polar for: revR_95_revT

 1 1 Reynolds number fixed          Mach number fixed         

 xtrf =   1.000 (top)        1.000 (bottom)
 Mach =   0.000     Re =     0.155 e 6     Ncrit =   9.000

  alpha     CL        CD       CDp       Cm    Top Xtr Bot Xtr   Cpmin    Chinge    XCp    
 ------- -------- --------- --------- -------- ------- ------- -------- --------- ---------
  -5.000   0.0799   0.02583   0.01838  -0.1505  0.8489  0.0732  -2.2005   0.0000   0.0000   0.0000   2.1817
  -4.500   0.1363   0.02320   0.01552  -0.1513  0.8417  0.0839  -2.0132   0.0000   0.0000   0.0000   1.3862
  -4.000   0.1819   0.02224   0.01449  -0.1502  0.8298  0.1018  -1.8355   0.0000   0.0000   0.0000   1.0934
  -3.500   0.2458   0.02109   0.01328  -0.1514  0.8227  0.1394  -1.6068   0.0000   0.0000   0.0000   0.8774
  -3.000   0.3047   0.02029   0.01272  -0.1523  0.8151  0.2047  -1.3817   0.0000   0.0000   0.0000   0.7576
  -2.500   0.3536   0.02011   0.01278  -0.1518  0.8024  0.2842  -1.1760   0.0000   0.0000   0.0000   0.6848
  -2.000   0.4163   0.01948   0.01240  -0.1528  0.7956  0.3877  -0.9447   0.0000   0.0000   0.0000   0.6206
  -1.500   0.4683   0.01941   0.01270  -0.1522  0.7853  0.5002  -0.7791   0.0000   0.0000   0.0000   0.5773
  -1.000   0.5182   0.01920   0.01292  -0.1507  0.7741  0.6355  -0.8176   0.0000   0.0000   0.0000   0.5419
  -0.500   0.5717   0.01866   0.01259  -0.1481  0.7672  0.7667  -0.8617   0.0000   0.0000   0.0000   0.5091
   0.000   0.5988   0.01910   0.01322  -0.1420  0.7526  0.8634  -0.8870   0.0000   0.0000   0.0000   0.4862
   0.500   0.6546   0.01845   0.01250  -0.1405  0.7441  1.0000  -0.9317   0.0000   0.0000   0.0000   0.4629
   1.000   0.7176   0.01868   0.01250  -0.1423  0.7341  1.0000  -0.9861   0.0000   0.0000   0.0000   0.4458
   1.500   0.7769   0.01868   0.01234  -0.1430  0.7209  1.0000  -1.0421   0.0000   0.0000   0.0000   0.4309
   2.000   0.8470   0.01824   0.01167  -0.1449  0.7138  1.0000  -1.1089   0.0000   0.0000   0.0000   0.4171
   2.500   0.8934   0.01892   0.01235  -0.1439  0.6976  1.0000  -1.1617   0.0000   0.0000   0.0000   0.4065
   3.000   0.9632   0.01823   0.01147  -0.1454  0.6885  1.0000  -1.2408   0.0000   0.0000   0.0000   0.3956
   3.500   1.0107   0.01865   0.01194  -0.1442  0.6715  1.0000  -1.3007   0.0000   0.0000   0.0000   0.3867
   4.000   1.0796   0.01808   0.01120  -0.1457  0.6613  1.0000  -1.3808   0.0000   0.0000   0.0000   0.3782
   4.500   1.1267   0.01838   0.01157  -0.1443  0.6434  1.0000  -1.4535   0.0000   0.0000   0.0000   0.3707
   5.000   1.1815   0.01832   0.01150  -0.1438  0.6265  1.0000  -1.5365   0.0000   0.0000   0.0000   0.3636
   5.500   1.2446   0.01798   0.01105  -0.1445  0.6110  1.0000  -1.6394   0.0000   0.0000   0.0000   0.3572
   6.000   1.2912   0.01832   0.01149  -0.1429  0.5909  1.0000  -1.7340   0.0000   0.0000   0.0000   0.3511
   6.500   1.3404   0.01855   0.01174  -0.1417  0.5689  1.0000  -1.8493   0.0000   0.0000   0.0000   0.3453
   7.000   1.3885   0.01888   0.01207  -0.1402  0.5455  1.0000  -1.9742   0.0000   0.0000   0.0000   0.3399
   7.500   1.4343   0.01937   0.01257  -0.1385  0.5212  1.0000  -2.1094   0.0000   0.0000   0.0000   0.3347
   8.000   1.4759   0.01998   0.01316  -0.1361  0.4940  1.0000  -2.2599   0.0000   0.0000   0.0000   0.3295
   8.500   1.5140   0.02081   0.01399  -0.1333  0.4669  1.0000  -2.4085   0.0000   0.0000   0.0000   0.3245
   9.000   1.5465   0.02179   0.01492  -0.1297  0.4382  1.0000  -2.5843   0.0000   0.0000   0.0000   0.3195
   9.500   1.5714   0.02300   0.01607  -0.1250  0.4100  1.0000  -2.7795   0.0000   0.0000   0.0000   0.3143
  10.000   1.5928   0.02453   0.01761  -0.1202  0.3836  1.0000  -2.9928   0.0000   0.0000   0.0000   0.3093
  10.500   1.6086   0.02639   0.01943  -0.1150  0.3563  1.0000  -3.2244   0.0000   0.0000   0.0000   0.3045
  11.000   1.6170   0.02873   0.02182  -0.1096  0.3293  1.0000  -3.4351   0.0000   0.0000   0.0000   0.2998
  11.500   1.6258   0.03141   0.02453  -0.1048  0.3037  1.0000  -3.6502   0.0000   0.0000   0.0000   0.2955
  12.000   1.6323   0.03450   0.02770  -0.1003  0.2790  1.0000  -3.8594   0.0000   0.0000   0.0000   0.2915
  12.500   1.6348   0.03809   0.03132  -0.0961  0.2544  1.0000  -4.0611   0.0000   0.0000   0.0000   0.2878
  13.000   1.6335   0.04221   0.03547  -0.0921  0.2302  1.0000  -4.2522   0.0000   0.0000   0.0000   0.2844
  13.500   1.6293   0.04688   0.04017  -0.0885  0.2068  1.0000  -4.4320   0.0000   0.0000   0.0000   0.2812
  14.000   1.6231   0.05210   0.04538  -0.0854  0.1846  1.0000  -4.6028   0.0000   0.0000   0.0000   0.2785
  14.500   1.6161   0.05789   0.05130  -0.0831  0.1645  1.0000  -4.7676   0.0000   0.0000   0.0000   0.2761
  15.000   1.6097   0.06398   0.05756  -0.0814  0.1463  1.0000  -4.9316   0.0000   0.0000   0.0000   0.2741


