xflr5 v6.59

 Calculated polar for: revR_90_revT

 1 1 Reynolds number fixed          Mach number fixed         

 xtrf =   1.000 (top)        1.000 (bottom)
 Mach =   0.000     Re =     0.165 e 6     Ncrit =   9.000

  alpha     CL        CD       CDp       Cm    Top Xtr Bot Xtr   Cpmin    Chinge    XCp    
 ------- -------- --------- --------- -------- ------- ------- -------- --------- ---------
  -5.000   0.0710   0.02352   0.01611  -0.1474  0.8495  0.0731  -2.2050   0.0000   0.0000   0.0000   2.3779
  -4.500   0.1334   0.02111   0.01345  -0.1485  0.8435  0.0844  -1.9950   0.0000   0.0000   0.0000   1.3892
  -4.000   0.1767   0.02045   0.01278  -0.1471  0.8314  0.1047  -1.8082   0.0000   0.0000   0.0000   1.0998
  -3.500   0.2366   0.01952   0.01181  -0.1477  0.8230  0.1443  -1.5809   0.0000   0.0000   0.0000   0.8858
  -3.000   0.2997   0.01855   0.01105  -0.1490  0.8168  0.2192  -1.3449   0.0000   0.0000   0.0000   0.7546
  -2.500   0.3458   0.01846   0.01126  -0.1481  0.8034  0.2994  -1.1420   0.0000   0.0000   0.0000   0.6838
  -2.000   0.4056   0.01788   0.01098  -0.1487  0.7956  0.4036  -0.9204   0.0000   0.0000   0.0000   0.6202
  -1.500   0.4611   0.01759   0.01103  -0.1484  0.7869  0.5252  -0.7701   0.0000   0.0000   0.0000   0.5740
  -1.000   0.5084   0.01750   0.01138  -0.1465  0.7745  0.6587  -0.8070   0.0000   0.0000   0.0000   0.5392
  -0.500   0.5592   0.01707   0.01112  -0.1436  0.7668  0.7776  -0.8492   0.0000   0.0000   0.0000   0.5067
   0.000   0.5913   0.01734   0.01154  -0.1382  0.7533  0.8680  -0.8780   0.0000   0.0000   0.0000   0.4827
   0.500   0.6462   0.01679   0.01094  -0.1366  0.7440  1.0000  -0.9229   0.0000   0.0000   0.0000   0.4597
   1.000   0.7107   0.01689   0.01080  -0.1386  0.7340  1.0000  -0.9785   0.0000   0.0000   0.0000   0.4425
   1.500   0.7692   0.01693   0.01070  -0.1393  0.7204  1.0000  -1.0341   0.0000   0.0000   0.0000   0.4278
   2.000   0.8373   0.01669   0.01023  -0.1410  0.7126  1.0000  -1.0990   0.0000   0.0000   0.0000   0.4145
   2.500   0.8860   0.01712   0.01067  -0.1402  0.6963  1.0000  -1.1555   0.0000   0.0000   0.0000   0.4037
   3.000   0.9535   0.01668   0.01002  -0.1415  0.6862  1.0000  -1.2327   0.0000   0.0000   0.0000   0.3932
   3.500   1.0025   0.01695   0.01034  -0.1405  0.6692  1.0000  -1.2942   0.0000   0.0000   0.0000   0.3842
   4.000   1.0609   0.01689   0.01022  -0.1407  0.6554  1.0000  -1.3659   0.0000   0.0000   0.0000   0.3760
   4.500   1.1185   0.01673   0.01001  -0.1407  0.6396  1.0000  -1.4507   0.0000   0.0000   0.0000   0.3685
   5.000   1.1701   0.01685   0.01015  -0.1398  0.6206  1.0000  -1.5310   0.0000   0.0000   0.0000   0.3615
   5.500   1.2247   0.01696   0.01024  -0.1394  0.6028  1.0000  -1.6289   0.0000   0.0000   0.0000   0.3551
   6.000   1.2810   0.01703   0.01023  -0.1392  0.5838  1.0000  -1.7367   0.0000   0.0000   0.0000   0.3492
   6.500   1.3310   0.01727   0.01043  -0.1380  0.5602  1.0000  -1.8612   0.0000   0.0000   0.0000   0.3435
   7.000   1.3775   0.01773   0.01091  -0.1364  0.5357  1.0000  -1.9861   0.0000   0.0000   0.0000   0.3381
   7.500   1.4228   0.01830   0.01144  -0.1346  0.5092  1.0000  -2.1375   0.0000   0.0000   0.0000   0.3329
   8.000   1.4625   0.01905   0.01220  -0.1321  0.4811  1.0000  -2.2878   0.0000   0.0000   0.0000   0.3278
   8.500   1.4979   0.01996   0.01317  -0.1289  0.4526  1.0000  -2.4438   0.0000   0.0000   0.0000   0.3227
   9.000   1.5272   0.02104   0.01425  -0.1248  0.4225  1.0000  -2.6413   0.0000   0.0000   0.0000   0.3176
   9.500   1.5507   0.02231   0.01553  -0.1200  0.3943  1.0000  -2.8647   0.0000   0.0000   0.0000   0.3124
  10.000   1.5704   0.02390   0.01713  -0.1151  0.3670  1.0000  -3.1102   0.0000   0.0000   0.0000   0.3074
  10.500   1.5840   0.02587   0.01909  -0.1098  0.3384  1.0000  -3.3413   0.0000   0.0000   0.0000   0.3025
  11.000   1.5955   0.02824   0.02145  -0.1049  0.3114  1.0000  -3.5690   0.0000   0.0000   0.0000   0.2980
  11.500   1.6055   0.03098   0.02422  -0.1004  0.2860  1.0000  -3.7944   0.0000   0.0000   0.0000   0.2939
  12.000   1.6115   0.03421   0.02746  -0.0961  0.2605  1.0000  -4.0135   0.0000   0.0000   0.0000   0.2900
  12.500   1.6129   0.03799   0.03128  -0.0920  0.2348  1.0000  -4.2195   0.0000   0.0000   0.0000   0.2864
  13.000   1.6110   0.04232   0.03563  -0.0883  0.2101  1.0000  -4.4130   0.0000   0.0000   0.0000   0.2831
  13.500   1.6074   0.04715   0.04049  -0.0850  0.1870  1.0000  -4.5989   0.0000   0.0000   0.0000   0.2801
  14.000   1.6031   0.05243   0.04584  -0.0823  0.1654  1.0000  -4.7804   0.0000   0.0000   0.0000   0.2775
  14.500   1.5979   0.05815   0.05165  -0.0802  0.1460  1.0000  -4.9551   0.0000   0.0000   0.0000   0.2752
  15.000   1.5911   0.06439   0.05797  -0.0785  0.1289  1.0000  -5.1191   0.0000   0.0000   0.0000   0.2732


