xflr5 v6.59

 Calculated polar for: revR_15_revT

 1 1 Reynolds number fixed          Mach number fixed         

 xtrf =   1.000 (top)        1.000 (bottom)
 Mach =   0.000     Re =     0.455 e 6     Ncrit =   9.000

  alpha     CL        CD       CDp       Cm    Top Xtr Bot Xtr   Cpmin    Chinge    XCp    
 ------- -------- --------- --------- -------- ------- ------- -------- --------- ---------
  -5.000  -0.2043   0.01108   0.00466  -0.0765  0.8680  0.0535  -2.5489   0.0000   0.0000   0.0000  -0.1359
  -4.500  -0.1536   0.01034   0.00385  -0.0754  0.8521  0.0754  -2.1859   0.0000   0.0000   0.0000  -0.2541
  -4.000  -0.1017   0.00973   0.00337  -0.0747  0.8381  0.1209  -1.8388   0.0000   0.0000   0.0000  -0.5012
  -3.500  -0.0490   0.00923   0.00301  -0.0741  0.8242  0.1828  -1.5028   0.0000   0.0000   0.0000  -1.2921
  -3.000   0.0033   0.00872   0.00273  -0.0735  0.8097  0.2608  -1.2274   0.0000   0.0000   0.0000  22.8392
  -2.500   0.0554   0.00816   0.00251  -0.0730  0.7963  0.3815  -1.0179   0.0000   0.0000   0.0000   1.5826
  -2.000   0.1070   0.00760   0.00237  -0.0722  0.7825  0.5158  -0.8181   0.0000   0.0000   0.0000   0.9306
  -1.500   0.1581   0.00720   0.00236  -0.0710  0.7678  0.6538  -0.6278   0.0000   0.0000   0.0000   0.7015
  -1.000   0.2112   0.00711   0.00235  -0.0699  0.7524  0.7268  -0.5382   0.0000   0.0000   0.0000   0.5817
  -0.500   0.2639   0.00703   0.00238  -0.0687  0.7372  0.7791  -0.5815   0.0000   0.0000   0.0000   0.5101
   0.000   0.3169   0.00704   0.00239  -0.0677  0.7209  0.8162  -0.6253   0.0000   0.0000   0.0000   0.4622
   0.500   0.3692   0.00707   0.00238  -0.0664  0.7027  0.8498  -0.6765   0.0000   0.0000   0.0000   0.4279
   1.000   0.4199   0.00705   0.00240  -0.0647  0.6841  0.8812  -0.7273   0.0000   0.0000   0.0000   0.4017
   1.500   0.4692   0.00707   0.00242  -0.0628  0.6620  0.9154  -0.7798   0.0000   0.0000   0.0000   0.3809
   2.000   0.5243   0.00710   0.00245  -0.0621  0.6399  0.9495  -0.8443   0.0000   0.0000   0.0000   0.3650
   2.500   0.5969   0.00725   0.00250  -0.0655  0.6130  0.9747  -0.9244   0.0000   0.0000   0.0000   0.3559
   3.000   0.6736   0.00745   0.00260  -0.0700  0.5819  0.9932  -1.0218   0.0000   0.0000   0.0000   0.3497
   3.500   0.7276   0.00768   0.00273  -0.0701  0.5509  1.0000  -1.1158   0.0000   0.0000   0.0000   0.3417
   4.000   0.7705   0.00802   0.00292  -0.0677  0.5176  1.0000  -1.2157   0.0000   0.0000   0.0000   0.3327
   4.500   0.8176   0.00840   0.00319  -0.0660  0.4838  1.0000  -1.3435   0.0000   0.0000   0.0000   0.3251
   5.000   0.8645   0.00887   0.00351  -0.0644  0.4448  1.0000  -1.5465   0.0000   0.0000   0.0000   0.3184
   5.500   0.9125   0.00934   0.00391  -0.0630  0.4107  1.0000  -1.8666   0.0000   0.0000   0.0000   0.3124
   6.000   0.9564   0.01002   0.00436  -0.0610  0.3565  1.0000  -2.1904   0.0000   0.0000   0.0000   0.3066
   6.500   0.9994   0.01078   0.00490  -0.0589  0.3053  1.0000  -2.5253   0.0000   0.0000   0.0000   0.3012
   7.000   1.0417   0.01159   0.00552  -0.0568  0.2587  1.0000  -2.8750   0.0000   0.0000   0.0000   0.2962
   7.500   1.0817   0.01251   0.00626  -0.0543  0.2120  1.0000  -3.2434   0.0000   0.0000   0.0000   0.2913
   8.000   1.1187   0.01356   0.00710  -0.0515  0.1659  1.0000  -3.6125   0.0000   0.0000   0.0000   0.2865
   8.500   1.1513   0.01477   0.00808  -0.0480  0.1217  1.0000  -3.9740   0.0000   0.0000   0.0000   0.2815
   9.000   1.1796   0.01597   0.00913  -0.0437  0.0889  1.0000  -4.3253   0.0000   0.0000   0.0000   0.2762
   9.500   1.2033   0.01716   0.01027  -0.0387  0.0672  1.0000  -4.6620   0.0000   0.0000   0.0000   0.2706
  10.000   1.2252   0.01850   0.01157  -0.0337  0.0498  1.0000  -4.9908   0.0000   0.0000   0.0000   0.2653
  10.500   1.2435   0.02012   0.01315  -0.0288  0.0349  1.0000  -5.2919   0.0000   0.0000   0.0000   0.2602
  11.000   1.2540   0.02233   0.01536  -0.0234  0.0218  1.0000  -5.5112   0.0000   0.0000   0.0000   0.2550
  11.500   1.2618   0.02495   0.01803  -0.0184  0.0170  1.0000  -5.7172   0.0000   0.0000   0.0000   0.2502
  12.000   1.2656   0.02810   0.02141  -0.0140  0.0153  1.0000  -5.8962   0.0000   0.0000   0.0000   0.2457
  12.500   1.2780   0.03093   0.02444  -0.0110  0.0146  1.0000  -6.1645   0.0000   0.0000   0.0000   0.2425
  13.000   1.2857   0.03438   0.02808  -0.0084  0.0139  1.0000  -6.4046   0.0000   0.0000   0.0000   0.2395
  13.500   1.2898   0.03843   0.03233  -0.0064  0.0134  1.0000  -6.6219   0.0000   0.0000   0.0000   0.2369
  14.000   1.2913   0.04310   0.03721  -0.0050  0.0130  1.0000  -6.8188   0.0000   0.0000   0.0000   0.2349
  14.500   1.2904   0.04841   0.04272  -0.0044  0.0127  1.0000  -6.9991   0.0000   0.0000   0.0000   0.2334
  15.000   1.2883   0.05433   0.04886  -0.0046  0.0124  1.0000  -7.1664   0.0000   0.0000   0.0000   0.2326


