xflr5 v6.59

 Calculated polar for: revR_80_revT

 1 1 Reynolds number fixed          Mach number fixed         

 xtrf =   1.000 (top)        1.000 (bottom)
 Mach =   0.000     Re =     0.320 e 6     Ncrit =   9.000

  alpha     CL        CD       CDp       Cm    Top Xtr Bot Xtr   Cpmin    Chinge    XCp    
 ------- -------- --------- --------- -------- ------- ------- -------- --------- ---------
  -5.000   0.0579   0.01444   0.00767  -0.1370  0.8115  0.0539  -2.2869   0.0000   0.0000   0.0000   2.6749
  -4.500   0.1134   0.01332   0.00640  -0.1371  0.8030  0.0656  -2.0376   0.0000   0.0000   0.0000   1.4850
  -4.000   0.1699   0.01268   0.00574  -0.1374  0.7952  0.0900  -1.7876   0.0000   0.0000   0.0000   1.0744
  -3.500   0.2251   0.01208   0.00524  -0.1375  0.7861  0.1320  -1.5431   0.0000   0.0000   0.0000   0.8710
  -3.000   0.2820   0.01159   0.00491  -0.1379  0.7773  0.1990  -1.2952   0.0000   0.0000   0.0000   0.7455
  -2.500   0.3389   0.01129   0.00479  -0.1383  0.7694  0.2731  -1.0667   0.0000   0.0000   0.0000   0.6625
  -2.000   0.3945   0.01092   0.00467  -0.1385  0.7599  0.3615  -0.8509   0.0000   0.0000   0.0000   0.6037
  -1.500   0.4517   0.01053   0.00450  -0.1387  0.7505  0.4634  -0.7621   0.0000   0.0000   0.0000   0.5585
  -1.000   0.5067   0.01027   0.00459  -0.1386  0.7411  0.5892  -0.8040   0.0000   0.0000   0.0000   0.5238
  -0.500   0.5606   0.01004   0.00464  -0.1378  0.7306  0.6980  -0.8466   0.0000   0.0000   0.0000   0.4952
   0.000   0.6140   0.01003   0.00470  -0.1367  0.7210  0.7814  -0.8895   0.0000   0.0000   0.0000   0.4712
   0.500   0.6633   0.00991   0.00472  -0.1348  0.7088  0.8401  -0.9323   0.0000   0.0000   0.0000   0.4511
   1.000   0.7112   0.00982   0.00462  -0.1324  0.6984  0.8970  -0.9791   0.0000   0.0000   0.0000   0.4333
   1.500   0.7661   0.00964   0.00452  -0.1317  0.6863  1.0000  -1.0335   0.0000   0.0000   0.0000   0.4185
   2.000   0.8268   0.00971   0.00439  -0.1328  0.6726  1.0000  -1.0945   0.0000   0.0000   0.0000   0.4066
   2.500   0.8836   0.00982   0.00448  -0.1333  0.6581  1.0000  -1.1609   0.0000   0.0000   0.0000   0.3961
   3.000   0.9410   0.00997   0.00451  -0.1336  0.6434  1.0000  -1.2289   0.0000   0.0000   0.0000   0.3867
   3.500   0.9965   0.01010   0.00457  -0.1336  0.6259  1.0000  -1.2963   0.0000   0.0000   0.0000   0.3781
   4.000   1.0507   0.01031   0.00476  -0.1334  0.6065  1.0000  -1.3730   0.0000   0.0000   0.0000   0.3704
   4.500   1.1046   0.01059   0.00500  -0.1332  0.5877  1.0000  -1.4540   0.0000   0.0000   0.0000   0.3633
   5.000   1.1571   0.01093   0.00527  -0.1327  0.5663  1.0000  -1.5435   0.0000   0.0000   0.0000   0.3568
   5.500   1.2078   0.01133   0.00560  -0.1319  0.5413  1.0000  -1.6436   0.0000   0.0000   0.0000   0.3506
   6.000   1.2573   0.01181   0.00604  -0.1310  0.5167  1.0000  -1.7583   0.0000   0.0000   0.0000   0.3449
   6.500   1.3044   0.01238   0.00656  -0.1296  0.4887  1.0000  -1.8861   0.0000   0.0000   0.0000   0.3394
   7.000   1.3494   0.01305   0.00717  -0.1280  0.4599  1.0000  -2.0263   0.0000   0.0000   0.0000   0.3342
   7.500   1.3911   0.01386   0.00789  -0.1259  0.4298  1.0000  -2.1880   0.0000   0.0000   0.0000   0.3290
   8.000   1.4290   0.01480   0.00875  -0.1232  0.3991  1.0000  -2.3624   0.0000   0.0000   0.0000   0.3240
   8.500   1.4636   0.01577   0.00970  -0.1201  0.3704  1.0000  -2.5766   0.0000   0.0000   0.0000   0.3190
   9.000   1.4925   0.01697   0.01087  -0.1161  0.3395  1.0000  -2.8511   0.0000   0.0000   0.0000   0.3140
   9.500   1.5165   0.01848   0.01231  -0.1119  0.3095  1.0000  -3.1226   0.0000   0.0000   0.0000   0.3091
  10.000   1.5388   0.02025   0.01405  -0.1078  0.2820  1.0000  -3.3954   0.0000   0.0000   0.0000   0.3046
  10.500   1.5558   0.02253   0.01624  -0.1037  0.2529  1.0000  -3.6557   0.0000   0.0000   0.0000   0.3003
  11.000   1.5741   0.02493   0.01865  -0.1001  0.2242  1.0000  -3.9261   0.0000   0.0000   0.0000   0.2963
  11.500   1.5886   0.02775   0.02145  -0.0966  0.1971  1.0000  -4.1957   0.0000   0.0000   0.0000   0.2925
  12.000   1.5993   0.03103   0.02469  -0.0931  0.1707  1.0000  -4.4550   0.0000   0.0000   0.0000   0.2890
  12.500   1.6057   0.03480   0.02842  -0.0897  0.1465  1.0000  -4.6996   0.0000   0.0000   0.0000   0.2856
  13.000   1.6095   0.03899   0.03259  -0.0865  0.1244  1.0000  -4.9347   0.0000   0.0000   0.0000   0.2825
  13.500   1.6113   0.04357   0.03718  -0.0837  0.1054  1.0000  -5.1626   0.0000   0.0000   0.0000   0.2797
  14.000   1.6119   0.04856   0.04225  -0.0813  0.0898  1.0000  -5.3842   0.0000   0.0000   0.0000   0.2771
  14.500   1.6055   0.05459   0.04828  -0.0793  0.0756  1.0000  -5.5705   0.0000   0.0000   0.0000   0.2749
  15.000   1.6060   0.06013   0.05394  -0.0779  0.0653  1.0000  -5.7912   0.0000   0.0000   0.0000   0.2730


