xflr5 v6.59

 Calculated polar for: revR_0_revT

 1 1 Reynolds number fixed          Mach number fixed         

 xtrf =   1.000 (top)        1.000 (bottom)
 Mach =   0.000     Re =     0.330 e 6     Ncrit =   9.000

  alpha     CL        CD       CDp       Cm    Top Xtr Bot Xtr   Cpmin    Chinge    XCp    
 ------- -------- --------- --------- -------- ------- ------- -------- --------- ---------
  -5.000  -0.2631   0.01225   0.00550  -0.0641  0.9312  0.0687  -2.7274   0.0000   0.0000   0.0000  -0.0026
  -4.500  -0.2097   0.01126   0.00460  -0.0637  0.9134  0.1033  -2.3361   0.0000   0.0000   0.0000  -0.0632
  -4.000  -0.1586   0.01047   0.00403  -0.0628  0.8951  0.1689  -1.9539   0.0000   0.0000   0.0000  -0.1566
  -3.500  -0.1081   0.00979   0.00362  -0.0618  0.8777  0.2581  -1.5908   0.0000   0.0000   0.0000  -0.3348
  -3.000  -0.0592   0.00904   0.00329  -0.0606  0.8601  0.3883  -1.2638   0.0000   0.0000   0.0000  -0.7930
  -2.500  -0.0112   0.00835   0.00310  -0.0589  0.8430  0.5464  -1.0025   0.0000   0.0000   0.0000  -5.0675
  -2.000   0.0377   0.00799   0.00309  -0.0569  0.8265  0.6746  -0.7992   0.0000   0.0000   0.0000   1.7761
  -1.500   0.0892   0.00793   0.00307  -0.0553  0.8098  0.7444  -0.6211   0.0000   0.0000   0.0000   0.8747
  -1.000   0.1404   0.00792   0.00308  -0.0535  0.7920  0.7940  -0.4796   0.0000   0.0000   0.0000   0.6329
  -0.500   0.1913   0.00791   0.00308  -0.0518  0.7733  0.8317  -0.5216   0.0000   0.0000   0.0000   0.5204
   0.000   0.2418   0.00792   0.00306  -0.0499  0.7547  0.8654  -0.5665   0.0000   0.0000   0.0000   0.4552
   0.500   0.2913   0.00791   0.00303  -0.0477  0.7343  0.8973  -0.6143   0.0000   0.0000   0.0000   0.4119
   1.000   0.3419   0.00793   0.00300  -0.0458  0.7133  0.9296  -0.6657   0.0000   0.0000   0.0000   0.3814
   2.000   0.4827   0.00809   0.00303  -0.0510  0.6619  0.9737  -0.8097   0.0000   0.0000   0.0000   0.3523
   2.500   0.5633   0.00821   0.00305  -0.0562  0.6307  0.9861  -0.9039   0.0000   0.0000   0.0000   0.3461
   3.000   0.6425   0.00836   0.00309  -0.0613  0.5953  0.9996  -1.0217   0.0000   0.0000   0.0000   0.3415
   3.500   0.6772   0.00856   0.00317  -0.0576  0.5627  1.0000  -1.1082   0.0000   0.0000   0.0000   0.3306
   4.000   0.7161   0.00888   0.00335  -0.0544  0.5277  1.0000  -1.2309   0.0000   0.0000   0.0000   0.3211
   4.500   0.7594   0.00928   0.00363  -0.0520  0.4875  1.0000  -1.4450   0.0000   0.0000   0.0000   0.3131
   5.000   0.8049   0.00976   0.00398  -0.0501  0.4501  1.0000  -1.7634   0.0000   0.0000   0.0000   0.3064
   5.500   0.8511   0.01028   0.00441  -0.0483  0.4082  1.0000  -2.1007   0.0000   0.0000   0.0000   0.3005
   6.000   0.8963   0.01091   0.00489  -0.0465  0.3627  1.0000  -2.4512   0.0000   0.0000   0.0000   0.2951
   6.500   0.9402   0.01165   0.00548  -0.0446  0.3128  1.0000  -2.8119   0.0000   0.0000   0.0000   0.2900
   7.000   0.9820   0.01256   0.00616  -0.0425  0.2545  1.0000  -3.1783   0.0000   0.0000   0.0000   0.2853
   8.000   1.0591   0.01490   0.00802  -0.0375  0.1434  1.0000  -3.9425   0.0000   0.0000   0.0000   0.2763
   8.500   1.0922   0.01639   0.00923  -0.0344  0.0937  1.0000  -4.3130   0.0000   0.0000   0.0000   0.2717
   9.000   1.1243   0.01783   0.01055  -0.0310  0.0649  1.0000  -4.6800   0.0000   0.0000   0.0000   0.2672
   9.500   1.1505   0.01938   0.01204  -0.0268  0.0448  1.0000  -5.0115   0.0000   0.0000   0.0000   0.2623
  10.000   1.1663   0.02127   0.01395  -0.0211  0.0292  1.0000  -5.2417   0.0000   0.0000   0.0000   0.2563
  10.500   1.1753   0.02368   0.01644  -0.0152  0.0229  1.0000  -5.4259   0.0000   0.0000   0.0000   0.2505
  11.000   1.1909   0.02587   0.01878  -0.0110  0.0203  1.0000  -5.6799   0.0000   0.0000   0.0000   0.2461
  11.500   1.1986   0.02884   0.02187  -0.0069  0.0186  1.0000  -5.9031   0.0000   0.0000   0.0000   0.2418
  12.000   1.1966   0.03300   0.02624  -0.0031  0.0175  1.0000  -6.0387   0.0000   0.0000   0.0000   0.2378
  12.500   1.2076   0.03645   0.02989  -0.0009  0.0170  1.0000  -6.2704   0.0000   0.0000   0.0000   0.2351
  13.000   1.2152   0.04051   0.03417   0.0008  0.0165  1.0000  -6.4736   0.0000   0.0000   0.0000   0.2328
  13.500   1.2206   0.04511   0.03899   0.0020  0.0161  1.0000  -6.6539   0.0000   0.0000   0.0000   0.2309
  14.000   1.2239   0.05024   0.04438   0.0027  0.0158  1.0000  -6.8125   0.0000   0.0000   0.0000   0.2295
  14.500   1.2245   0.05602   0.05043   0.0026  0.0156  1.0000  -6.9458   0.0000   0.0000   0.0000   0.2285
  15.000   1.2214   0.06267   0.05739   0.0018  0.0154  1.0000  -7.1152   0.0000   0.0000   0.0000   0.2283


