xflr5 v6.59

 Calculated polar for: revR_35_revT

 1 1 Reynolds number fixed          Mach number fixed         

 xtrf =   1.000 (top)        1.000 (bottom)
 Mach =   0.000     Re =     0.055 e 6     Ncrit =   9.000

  alpha     CL        CD       CDp       Cm    Top Xtr Bot Xtr   Cpmin    Chinge    XCp    
 ------- -------- --------- --------- -------- ------- ------- -------- --------- ---------
  -5.000  -0.4465   0.04522   0.03782  -0.0469  1.0000  0.1383  -2.4958   0.0000   0.0000   0.0000   0.1391
  -4.500  -0.3940   0.03837   0.02974  -0.0505  1.0000  0.1430  -2.4596   0.0000   0.0000   0.0000   0.1156
  -4.000  -0.3433   0.03407   0.02489  -0.0520  1.0000  0.1577  -2.3045   0.0000   0.0000   0.0000   0.0921
  -3.500  -0.2914   0.03116   0.02147  -0.0528  1.0000  0.1830  -2.1218   0.0000   0.0000   0.0000   0.0619
  -3.000  -0.2415   0.02931   0.01956  -0.0532  1.0000  0.2326  -1.9207   0.0000   0.0000   0.0000   0.0223
  -2.500  -0.1907   0.02766   0.01826  -0.0535  1.0000  0.3280  -1.7062   0.0000   0.0000   0.0000  -0.0386
  -2.000  -0.1399   0.02644   0.01822  -0.0533  1.0000  0.5379  -1.4657   0.0000   0.0000   0.0000  -0.1400
  -1.500  -0.1076   0.02651   0.01941  -0.0447  0.9891  0.8383  -1.2859   0.0000   0.0000   0.0000  -0.1762
  -1.000  -0.0214   0.02743   0.01965  -0.0531  0.9676  1.0000  -1.0280   0.0000   0.0000   0.0000  -2.2732
  -0.500   0.0640   0.02905   0.02056  -0.0618  0.9459  1.0000  -0.7820   0.0000   0.0000   0.0000   1.2243
   0.000   0.1389   0.03065   0.02168  -0.0679  0.9236  1.0000  -0.5714   0.0000   0.0000   0.0000   0.7404
   0.500   0.2088   0.03230   0.02296  -0.0727  0.9006  1.0000  -0.5390   0.0000   0.0000   0.0000   0.5976
   1.000   0.2767   0.03396   0.02435  -0.0768  0.8768  1.0000  -0.5873   0.0000   0.0000   0.0000   0.5258
   1.500   0.3441   0.03558   0.02578  -0.0803  0.8522  1.0000  -0.6400   0.0000   0.0000   0.0000   0.4809
   2.000   0.4090   0.03718   0.02725  -0.0831  0.8275  1.0000  -0.6966   0.0000   0.0000   0.0000   0.4501
   2.500   0.4727   0.03871   0.02872  -0.0853  0.8029  1.0000  -0.7536   0.0000   0.0000   0.0000   0.4269
   3.000   0.5391   0.04001   0.03001  -0.0873  0.7779  1.0000  -0.8200   0.0000   0.0000   0.0000   0.4078
   3.500   0.5735   0.04201   0.03202  -0.0856  0.7483  1.0000  -0.8645   0.0000   0.0000   0.0000   0.3947
   4.000   0.6215   0.04371   0.03377  -0.0853  0.7204  1.0000  -0.9241   0.0000   0.0000   0.0000   0.3821
   4.500   0.6734   0.04516   0.03532  -0.0850  0.6930  1.0000  -0.9959   0.0000   0.0000   0.0000   0.3706
   5.000   0.7305   0.04614   0.03645  -0.0846  0.6661  1.0000  -1.0848   0.0000   0.0000   0.0000   0.3597
   5.500   0.7908   0.04662   0.03711  -0.0839  0.6402  1.0000  -1.1948   0.0000   0.0000   0.0000   0.3494
   6.000   0.8538   0.04646   0.03717  -0.0826  0.6150  1.0000  -1.3297   0.0000   0.0000   0.0000   0.3395
   6.500   0.9274   0.04482   0.03580  -0.0809  0.5904  1.0000  -1.5182   0.0000   0.0000   0.0000   0.3295
   7.000   1.0074   0.04214   0.03341  -0.0790  0.5653  1.0000  -1.7876   0.0000   0.0000   0.0000   0.3201
   7.500   1.0273   0.04481   0.03632  -0.0750  0.5297  1.0000  -1.9869   0.0000   0.0000   0.0000   0.3141
   8.000   1.1344   0.03921   0.03098  -0.0737  0.4979  1.0000  -2.5245   0.0000   0.0000   0.0000   0.3054
   8.500   1.1934   0.03816   0.03012  -0.0708  0.4565  1.0000  -2.9033   0.0000   0.0000   0.0000   0.2990
   9.000   1.2509   0.03730   0.02926  -0.0678  0.4087  1.0000  -3.2923   0.0000   0.0000   0.0000   0.2931
   9.500   1.2970   0.03732   0.02918  -0.0641  0.3556  1.0000  -3.6484   0.0000   0.0000   0.0000   0.2874
  10.000   1.3297   0.03875   0.03033  -0.0597  0.3012  1.0000  -3.9586   0.0000   0.0000   0.0000   0.2821
  10.500   1.3428   0.04145   0.03293  -0.0540  0.2517  1.0000  -4.1809   0.0000   0.0000   0.0000   0.2766
  11.000   1.3585   0.04492   0.03617  -0.0490  0.2076  1.0000  -4.3941   0.0000   0.0000   0.0000   0.2717
  11.500   1.3531   0.04910   0.04055  -0.0427  0.1775  1.0000  -4.5078   0.0000   0.0000   0.0000   0.2664
  12.000   1.3584   0.05455   0.04619  -0.0383  0.1536  1.0000  -4.6205   0.0000   0.0000   0.0000   0.2622
  12.500   1.3584   0.06055   0.05238  -0.0344  0.1357  1.0000  -4.7071   0.0000   0.0000   0.0000   0.2585
  13.500   1.3195   0.07628   0.06892  -0.0287  0.1174  1.0000  -4.6922   0.0000   0.0000   0.0000   0.2533
  14.000   1.2596   0.08859   0.08179  -0.0295  0.1175  1.0000  -4.5006   0.0000   0.0000   0.0000   0.2541
  14.500   1.1878   0.10537   0.09885  -0.0352  0.1192  1.0000  -4.2188   0.0000   0.0000   0.0000   0.2596


