xflr5 v6.59

 Calculated polar for: revR_25_revT

 1 1 Reynolds number fixed          Mach number fixed         

 xtrf =   1.000 (top)        1.000 (bottom)
 Mach =   0.000     Re =     0.295 e 6     Ncrit =   9.000

  alpha     CL        CD       CDp       Cm    Top Xtr Bot Xtr   Cpmin    Chinge    XCp    
 ------- -------- --------- --------- -------- ------- ------- -------- --------- ---------
  -5.000  -0.1626   0.01328   0.00640  -0.0877  0.8871  0.0632  -2.4645   0.0000   0.0000   0.0000  -0.3048
  -4.500  -0.1100   0.01229   0.00535  -0.0870  0.8742  0.0880  -2.1363   0.0000   0.0000   0.0000  -0.5607
  -4.000  -0.0582   0.01152   0.00475  -0.0864  0.8595  0.1387  -1.8036   0.0000   0.0000   0.0000  -1.2663
  -3.500  -0.0046   0.01092   0.00435  -0.0860  0.8472  0.2168  -1.4845   0.0000   0.0000   0.0000  -18.5929
  -3.000   0.0475   0.01027   0.00406  -0.0856  0.8333  0.3232  -1.2298   0.0000   0.0000   0.0000   2.0781
  -2.500   0.1002   0.00970   0.00385  -0.0851  0.8205  0.4488  -1.0193   0.0000   0.0000   0.0000   1.1091
  -2.000   0.1511   0.00914   0.00377  -0.0838  0.8064  0.6034  -0.8194   0.0000   0.0000   0.0000   0.8095
  -1.500   0.2026   0.00898   0.00385  -0.0823  0.7933  0.7074  -0.6275   0.0000   0.0000   0.0000   0.6587
  -1.000   0.2547   0.00894   0.00384  -0.0807  0.7794  0.7748  -0.5732   0.0000   0.0000   0.0000   0.5676
  -0.500   0.3053   0.00892   0.00386  -0.0789  0.7638  0.8229  -0.6152   0.0000   0.0000   0.0000   0.5080
   0.000   0.3549   0.00890   0.00384  -0.0767  0.7494  0.8626  -0.6580   0.0000   0.0000   0.0000   0.4649
   0.500   0.4026   0.00883   0.00376  -0.0741  0.7337  0.9023  -0.7037   0.0000   0.0000   0.0000   0.4321
   1.000   0.4521   0.00876   0.00368  -0.0719  0.7158  0.9426  -0.7537   0.0000   0.0000   0.0000   0.4066
   1.500   0.5260   0.00871   0.00355  -0.0752  0.6977  0.9772  -0.8236   0.0000   0.0000   0.0000   0.3901
   2.000   0.6019   0.00870   0.00343  -0.0796  0.6768  1.0000  -0.8985   0.0000   0.0000   0.0000   0.3788
   2.500   0.6505   0.00882   0.00344  -0.0785  0.6549  1.0000  -0.9619   0.0000   0.0000   0.0000   0.3668
   3.000   0.7032   0.00898   0.00352  -0.0780  0.6305  1.0000  -1.0343   0.0000   0.0000   0.0000   0.3566
   3.500   0.7565   0.00920   0.00366  -0.0776  0.6040  1.0000  -1.1167   0.0000   0.0000   0.0000   0.3478
   4.000   0.8093   0.00948   0.00384  -0.0770  0.5743  1.0000  -1.2182   0.0000   0.0000   0.0000   0.3399
   4.500   0.8614   0.00985   0.00409  -0.0764  0.5432  1.0000  -1.3319   0.0000   0.0000   0.0000   0.3328
   5.000   0.9129   0.01027   0.00444  -0.0756  0.5098  1.0000  -1.4809   0.0000   0.0000   0.0000   0.3265
   5.500   0.9629   0.01079   0.00485  -0.0747  0.4722  1.0000  -1.7154   0.0000   0.0000   0.0000   0.3207
   6.000   1.0128   0.01136   0.00536  -0.0738  0.4365  1.0000  -2.0386   0.0000   0.0000   0.0000   0.3154
   6.500   1.0602   0.01207   0.00593  -0.0726  0.3945  1.0000  -2.3704   0.0000   0.0000   0.0000   0.3104
   7.000   1.1067   0.01286   0.00662  -0.0713  0.3525  1.0000  -2.7131   0.0000   0.0000   0.0000   0.3057
   7.500   1.1501   0.01384   0.00741  -0.0696  0.3022  1.0000  -3.0703   0.0000   0.0000   0.0000   0.3012
   8.000   1.1916   0.01496   0.00834  -0.0679  0.2483  1.0000  -3.4394   0.0000   0.0000   0.0000   0.2970
   8.500   1.2308   0.01624   0.00943  -0.0658  0.2010  1.0000  -3.8107   0.0000   0.0000   0.0000   0.2928
   9.000   1.2662   0.01773   0.01078  -0.0634  0.1550  1.0000  -4.1758   0.0000   0.0000   0.0000   0.2887
   9.500   1.2948   0.01950   0.01233  -0.0601  0.1115  1.0000  -4.5194   0.0000   0.0000   0.0000   0.2843
  10.000   1.3189   0.02147   0.01416  -0.0563  0.0816  1.0000  -4.8456   0.0000   0.0000   0.0000   0.2799
  10.500   1.3401   0.02367   0.01632  -0.0526  0.0610  1.0000  -5.1554   0.0000   0.0000   0.0000   0.2757
  11.000   1.3586   0.02619   0.01890  -0.0492  0.0463  1.0000  -5.4410   0.0000   0.0000   0.0000   0.2718
  11.500   1.3689   0.02957   0.02240  -0.0457  0.0344  1.0000  -5.6475   0.0000   0.0000   0.0000   0.2681
  12.000   1.3580   0.03513   0.02814  -0.0415  0.0263  1.0000  -5.6932   0.0000   0.0000   0.0000   0.2645
  12.500   1.3660   0.03929   0.03253  -0.0393  0.0244  1.0000  -5.8710   0.0000   0.0000   0.0000   0.2617
  13.000   1.3695   0.04409   0.03758  -0.0373  0.0229  1.0000  -6.0266   0.0000   0.0000   0.0000   0.2593
  13.500   1.3702   0.04938   0.04310  -0.0357  0.0218  1.0000  -6.1690   0.0000   0.0000   0.0000   0.2571
  14.000   1.3694   0.05502   0.04899  -0.0345  0.0210  1.0000  -6.3022   0.0000   0.0000   0.0000   0.2553
  14.500   1.3675   0.06111   0.05532  -0.0337  0.0205  1.0000  -6.4259   0.0000   0.0000   0.0000   0.2538
  15.000   1.3638   0.06775   0.06223  -0.0337  0.0200  1.0000  -6.5373   0.0000   0.0000   0.0000   0.2528


