xflr5 v6.59

 Calculated polar for: revR_55_revT

 1 1 Reynolds number fixed          Mach number fixed         

 xtrf =   1.000 (top)        1.000 (bottom)
 Mach =   0.000     Re =     0.145 e 6     Ncrit =   9.000

  alpha     CL        CD       CDp       Cm    Top Xtr Bot Xtr   Cpmin    Chinge    XCp    
 ------- -------- --------- --------- -------- ------- ------- -------- --------- ---------
  -5.000  -0.0785   0.02267   0.01490  -0.1160  0.9007  0.0827  -2.3367   0.0000   0.0000   0.0000  -1.2655
  -4.500  -0.0253   0.02092   0.01303  -0.1159  0.8895  0.0995  -2.0727   0.0000   0.0000   0.0000  -4.4410
  -4.000   0.0361   0.01958   0.01162  -0.1169  0.8795  0.1339  -1.7810   0.0000   0.0000   0.0000   3.5559
  -3.500   0.0993   0.01827   0.01063  -0.1186  0.8710  0.2108  -1.5268   0.0000   0.0000   0.0000   1.4643
  -3.000   0.1497   0.01761   0.01036  -0.1181  0.8571  0.3119  -1.3114   0.0000   0.0000   0.0000   1.0505
  -2.000   0.2563   0.01655   0.01029  -0.1166  0.8340  0.5959  -0.8819   0.0000   0.0000   0.0000   0.7092
  -1.500   0.3087   0.01625   0.01029  -0.1138  0.8254  0.7341  -0.6837   0.0000   0.0000   0.0000   0.6211
  -1.000   0.3452   0.01645   0.01059  -0.1088  0.8089  0.8195  -0.6572   0.0000   0.0000   0.0000   0.5664
  -0.500   0.3860   0.01622   0.01034  -0.1034  0.7991  0.8967  -0.6920   0.0000   0.0000   0.0000   0.5180
   0.000   0.4534   0.01603   0.01009  -0.1048  0.7845  0.9784  -0.7429   0.0000   0.0000   0.0000   0.4804
   0.500   0.5216   0.01589   0.00972  -0.1075  0.7727  1.0000  -0.7980   0.0000   0.0000   0.0000   0.4546
   1.000   0.5779   0.01588   0.00953  -0.1079  0.7574  1.0000  -0.8487   0.0000   0.0000   0.0000   0.4344
   1.500   0.6329   0.01608   0.00960  -0.1079  0.7417  1.0000  -0.9039   0.0000   0.0000   0.0000   0.4176
   2.000   0.6961   0.01584   0.00918  -0.1086  0.7297  1.0000  -0.9687   0.0000   0.0000   0.0000   0.4025
   2.500   0.7490   0.01596   0.00925  -0.1080  0.7108  1.0000  -1.0299   0.0000   0.0000   0.0000   0.3901
   3.000   0.8045   0.01605   0.00930  -0.1077  0.6936  1.0000  -1.0969   0.0000   0.0000   0.0000   0.3792
   3.500   0.8638   0.01589   0.00903  -0.1076  0.6772  1.0000  -1.1745   0.0000   0.0000   0.0000   0.3694
   4.000   0.9206   0.01579   0.00887  -0.1073  0.6579  1.0000  -1.2576   0.0000   0.0000   0.0000   0.3608
   4.500   0.9741   0.01586   0.00895  -0.1065  0.6360  1.0000  -1.3460   0.0000   0.0000   0.0000   0.3530
   5.000   1.0276   0.01596   0.00905  -0.1058  0.6129  1.0000  -1.4544   0.0000   0.0000   0.0000   0.3460
   5.500   1.0809   0.01610   0.00915  -0.1049  0.5878  1.0000  -1.5718   0.0000   0.0000   0.0000   0.3395
   6.000   1.1336   0.01637   0.00934  -0.1040  0.5606  1.0000  -1.7199   0.0000   0.0000   0.0000   0.3335
   6.500   1.1806   0.01684   0.00988  -0.1024  0.5294  1.0000  -1.8749   0.0000   0.0000   0.0000   0.3279
   7.000   1.2275   0.01738   0.01041  -0.1007  0.4967  1.0000  -2.0759   0.0000   0.0000   0.0000   0.3225
   7.500   1.2726   0.01808   0.01100  -0.0989  0.4622  1.0000  -2.3532   0.0000   0.0000   0.0000   0.3174
   8.000   1.3132   0.01895   0.01192  -0.0965  0.4271  1.0000  -2.6490   0.0000   0.0000   0.0000   0.3124
   8.500   1.3506   0.01999   0.01287  -0.0936  0.3904  1.0000  -2.9522   0.0000   0.0000   0.0000   0.3075
   9.000   1.3818   0.02117   0.01408  -0.0900  0.3525  1.0000  -3.2498   0.0000   0.0000   0.0000   0.3026
   9.500   1.4089   0.02264   0.01548  -0.0860  0.3178  1.0000  -3.5407   0.0000   0.0000   0.0000   0.2977
  10.000   1.4258   0.02432   0.01718  -0.0807  0.2819  1.0000  -3.8003   0.0000   0.0000   0.0000   0.2925
  10.500   1.4362   0.02659   0.01936  -0.0754  0.2465  1.0000  -4.0393   0.0000   0.0000   0.0000   0.2876
  11.000   1.4439   0.02937   0.02220  -0.0707  0.2112  1.0000  -4.2669   0.0000   0.0000   0.0000   0.2832
  11.500   1.4461   0.03298   0.02568  -0.0663  0.1797  1.0000  -4.4699   0.0000   0.0000   0.0000   0.2791
  12.000   1.4488   0.03696   0.02971  -0.0627  0.1495  1.0000  -4.6689   0.0000   0.0000   0.0000   0.2756
  12.500   1.4465   0.04166   0.03440  -0.0594  0.1242  1.0000  -4.8421   0.0000   0.0000   0.0000   0.2725
  13.000   1.4426   0.04684   0.03960  -0.0566  0.1042  1.0000  -5.0039   0.0000   0.0000   0.0000   0.2696
  13.500   1.4366   0.05249   0.04529  -0.0540  0.0883  1.0000  -5.1511   0.0000   0.0000   0.0000   0.2670
  14.000   1.4289   0.05861   0.05140  -0.0522  0.0748  1.0000  -5.2866   0.0000   0.0000   0.0000   0.2649
  14.500   1.4283   0.06445   0.05754  -0.0509  0.0654  1.0000  -5.4316   0.0000   0.0000   0.0000   0.2630
  15.000   1.4216   0.07108   0.06428  -0.0501  0.0573  1.0000  -5.5546   0.0000   0.0000   0.0000   0.2616


