xflr5 v6.59

 Calculated polar for: revR_65_revT

 1 1 Reynolds number fixed          Mach number fixed         

 xtrf =   1.000 (top)        1.000 (bottom)
 Mach =   0.000     Re =     0.330 e 6     Ncrit =   9.000

  alpha     CL        CD       CDp       Cm    Top Xtr Bot Xtr   Cpmin    Chinge    XCp    
 ------- -------- --------- --------- -------- ------- ------- -------- --------- ---------
  -5.000  -0.0021   0.01389   0.00709  -0.1234  0.8237  0.0540  -2.3310   0.0000   0.0000   0.0000  -59.7315
  -4.500   0.0514   0.01273   0.00587  -0.1232  0.8148  0.0680  -2.0315   0.0000   0.0000   0.0000   2.6995
  -4.000   0.1071   0.01205   0.00517  -0.1232  0.8054  0.0961  -1.7695   0.0000   0.0000   0.0000   1.4226
  -3.500   0.1627   0.01151   0.00472  -0.1234  0.7961  0.1466  -1.5247   0.0000   0.0000   0.0000   1.0203
  -3.000   0.2181   0.01101   0.00446  -0.1235  0.7864  0.2189  -1.2794   0.0000   0.0000   0.0000   0.8241
  -2.500   0.2746   0.01059   0.00422  -0.1238  0.7773  0.3026  -1.0509   0.0000   0.0000   0.0000   0.7054
  -2.000   0.3299   0.01025   0.00414  -0.1239  0.7673  0.3962  -0.8347   0.0000   0.0000   0.0000   0.6283
  -1.500   0.3853   0.00977   0.00401  -0.1238  0.7564  0.5251  -0.6985   0.0000   0.0000   0.0000   0.5726
  -1.000   0.4396   0.00954   0.00411  -0.1233  0.7469  0.6472  -0.7386   0.0000   0.0000   0.0000   0.5307
  -0.500   0.4925   0.00939   0.00417  -0.1222  0.7356  0.7391  -0.7808   0.0000   0.0000   0.0000   0.4974
   0.000   0.5452   0.00938   0.00418  -0.1208  0.7243  0.8045  -0.8234   0.0000   0.0000   0.0000   0.4703
   0.500   0.5955   0.00930   0.00419  -0.1191  0.7119  0.8529  -0.8709   0.0000   0.0000   0.0000   0.4480
   1.000   0.6420   0.00924   0.00413  -0.1163  0.7001  0.9063  -0.9171   0.0000   0.0000   0.0000   0.4285
   1.500   0.6978   0.00905   0.00398  -0.1158  0.6859  0.9723  -0.9730   0.0000   0.0000   0.0000   0.4127
   2.000   0.7613   0.00911   0.00392  -0.1176  0.6709  1.0000  -1.0387   0.0000   0.0000   0.0000   0.4006
   2.500   0.8194   0.00923   0.00392  -0.1182  0.6558  1.0000  -1.1017   0.0000   0.0000   0.0000   0.3898
   3.000   0.8752   0.00935   0.00399  -0.1183  0.6368  1.0000  -1.1685   0.0000   0.0000   0.0000   0.3802
   3.500   0.9307   0.00955   0.00413  -0.1184  0.6183  1.0000  -1.2430   0.0000   0.0000   0.0000   0.3716
   4.000   0.9854   0.00980   0.00430  -0.1183  0.5983  1.0000  -1.3203   0.0000   0.0000   0.0000   0.3638
   4.500   1.0387   0.01008   0.00452  -0.1179  0.5746  1.0000  -1.4105   0.0000   0.0000   0.0000   0.3566
   5.000   1.0911   0.01045   0.00482  -0.1173  0.5501  1.0000  -1.5064   0.0000   0.0000   0.0000   0.3501
   5.500   1.1420   0.01088   0.00519  -0.1166  0.5227  1.0000  -1.6258   0.0000   0.0000   0.0000   0.3440
   6.000   1.1912   0.01140   0.00564  -0.1156  0.4934  1.0000  -1.7456   0.0000   0.0000   0.0000   0.3383
   6.500   1.2385   0.01203   0.00617  -0.1143  0.4631  1.0000  -1.9028   0.0000   0.0000   0.0000   0.3328
   7.000   1.2840   0.01273   0.00681  -0.1128  0.4299  1.0000  -2.0632   0.0000   0.0000   0.0000   0.3277
   7.500   1.3284   0.01349   0.00753  -0.1111  0.3998  1.0000  -2.2743   0.0000   0.0000   0.0000   0.3228
   8.000   1.3664   0.01452   0.00842  -0.1086  0.3636  1.0000  -2.5203   0.0000   0.0000   0.0000   0.3179
   8.500   1.4046   0.01549   0.00936  -0.1061  0.3304  1.0000  -2.8214   0.0000   0.0000   0.0000   0.3132
   9.000   1.4360   0.01665   0.01046  -0.1025  0.2996  1.0000  -3.1108   0.0000   0.0000   0.0000   0.3083
   9.500   1.4606   0.01819   0.01188  -0.0984  0.2652  1.0000  -3.3952   0.0000   0.0000   0.0000   0.3034
  10.000   1.4852   0.01987   0.01353  -0.0946  0.2331  1.0000  -3.6878   0.0000   0.0000   0.0000   0.2990
  10.500   1.5047   0.02201   0.01559  -0.0907  0.2022  1.0000  -3.9673   0.0000   0.0000   0.0000   0.2947
  11.000   1.5211   0.02456   0.01806  -0.0870  0.1714  1.0000  -4.2396   0.0000   0.0000   0.0000   0.2907
  11.500   1.5357   0.02744   0.02088  -0.0835  0.1425  1.0000  -4.5173   0.0000   0.0000   0.0000   0.2870
  12.000   1.5449   0.03088   0.02424  -0.0801  0.1162  1.0000  -4.7767   0.0000   0.0000   0.0000   0.2835
  12.500   1.5521   0.03468   0.02805  -0.0770  0.0950  1.0000  -5.0291   0.0000   0.0000   0.0000   0.2803
  13.000   1.5576   0.03879   0.03219  -0.0741  0.0785  1.0000  -5.2740   0.0000   0.0000   0.0000   0.2773
  13.500   1.5586   0.04354   0.03699  -0.0714  0.0653  1.0000  -5.4948   0.0000   0.0000   0.0000   0.2745
  14.000   1.5560   0.04893   0.04244  -0.0693  0.0544  1.0000  -5.6965   0.0000   0.0000   0.0000   0.2722
  14.500   1.5542   0.05463   0.04831  -0.0677  0.0468  1.0000  -5.8935   0.0000   0.0000   0.0000   0.2701
  15.000   1.5468   0.06125   0.05503  -0.0666  0.0403  1.0000  -6.0679   0.0000   0.0000   0.0000   0.2686


