xflr5 v6.59

 Calculated polar for: revR_95_revT

 1 1 Reynolds number fixed          Mach number fixed         

 xtrf =   1.000 (top)        1.000 (bottom)
 Mach =   0.000     Re =     0.485 e 6     Ncrit =   9.000

  alpha     CL        CD       CDp       Cm    Top Xtr Bot Xtr   Cpmin    Chinge    XCp    
 ------- -------- --------- --------- -------- ------- ------- -------- --------- ---------
  -5.000   0.1217   0.01219   0.00573  -0.1497  0.7727  0.0425  -2.3506   0.0000   0.0000   0.0000   1.5098
  -4.500   0.1791   0.01143   0.00487  -0.1503  0.7649  0.0520  -2.0864   0.0000   0.0000   0.0000   1.1072
  -4.000   0.2358   0.01081   0.00428  -0.1506  0.7583  0.0703  -1.8259   0.0000   0.0000   0.0000   0.9006
  -3.500   0.2933   0.01032   0.00383  -0.1510  0.7506  0.1008  -1.5717   0.0000   0.0000   0.0000   0.7732
  -3.000   0.3511   0.00995   0.00357  -0.1516  0.7435  0.1501  -1.3180   0.0000   0.0000   0.0000   0.6874
  -2.500   0.4086   0.00970   0.00347  -0.1522  0.7358  0.2088  -1.0835   0.0000   0.0000   0.0000   0.6261
  -2.000   0.4658   0.00940   0.00334  -0.1526  0.7278  0.2739  -0.8594   0.0000   0.0000   0.0000   0.5798
  -1.500   0.5235   0.00911   0.00320  -0.1530  0.7189  0.3532  -0.8357   0.0000   0.0000   0.0000   0.5434
  -1.000   0.5811   0.00895   0.00323  -0.1535  0.7104  0.4424  -0.8768   0.0000   0.0000   0.0000   0.5142
  -0.500   0.6380   0.00868   0.00325  -0.1538  0.7019  0.5459  -0.9217   0.0000   0.0000   0.0000   0.4903
   0.000   0.6941   0.00844   0.00327  -0.1538  0.6916  0.6620  -0.9668   0.0000   0.0000   0.0000   0.4699
   0.500   0.7490   0.00840   0.00342  -0.1533  0.6820  0.7499  -1.0111   0.0000   0.0000   0.0000   0.4524
   1.000   0.8030   0.00835   0.00348  -0.1527  0.6719  0.8071  -1.0604   0.0000   0.0000   0.0000   0.4371
   1.500   0.8542   0.00835   0.00351  -0.1514  0.6597  0.8645  -1.1141   0.0000   0.0000   0.0000   0.4235
   2.000   0.9003   0.00821   0.00350  -0.1489  0.6471  0.9285  -1.1649   0.0000   0.0000   0.0000   0.4110
   2.500   0.9587   0.00827   0.00347  -0.1494  0.6334  1.0000  -1.2317   0.0000   0.0000   0.0000   0.4008
   3.000   1.0158   0.00842   0.00357  -0.1499  0.6184  1.0000  -1.3003   0.0000   0.0000   0.0000   0.3918
   3.500   1.0713   0.00864   0.00372  -0.1500  0.6005  1.0000  -1.3685   0.0000   0.0000   0.0000   0.3837
   4.000   1.1258   0.00894   0.00391  -0.1500  0.5834  1.0000  -1.4374   0.0000   0.0000   0.0000   0.3762
   4.500   1.1796   0.00924   0.00417  -0.1498  0.5652  1.0000  -1.5190   0.0000   0.0000   0.0000   0.3693
   5.000   1.2319   0.00960   0.00448  -0.1494  0.5435  1.0000  -1.6003   0.0000   0.0000   0.0000   0.3628
   5.500   1.2825   0.01004   0.00485  -0.1487  0.5204  1.0000  -1.6965   0.0000   0.0000   0.0000   0.3568
   6.000   1.3318   0.01054   0.00529  -0.1478  0.4978  1.0000  -1.7972   0.0000   0.0000   0.0000   0.3511
   6.500   1.3783   0.01114   0.00581  -0.1464  0.4701  1.0000  -1.9191   0.0000   0.0000   0.0000   0.3456
   7.000   1.4232   0.01180   0.00641  -0.1448  0.4446  1.0000  -2.0412   0.0000   0.0000   0.0000   0.3404
   7.500   1.4634   0.01262   0.00712  -0.1425  0.4140  1.0000  -2.1810   0.0000   0.0000   0.0000   0.3352
   8.000   1.4999   0.01350   0.00794  -0.1395  0.3871  1.0000  -2.3249   0.0000   0.0000   0.0000   0.3301
   8.500   1.5315   0.01457   0.00893  -0.1359  0.3597  1.0000  -2.4672   0.0000   0.0000   0.0000   0.3250
   9.000   1.5588   0.01588   0.01016  -0.1319  0.3307  1.0000  -2.6485   0.0000   0.0000   0.0000   0.3200
   9.500   1.5852   0.01737   0.01161  -0.1281  0.3051  1.0000  -2.8512   0.0000   0.0000   0.0000   0.3154
  10.000   1.6098   0.01909   0.01331  -0.1245  0.2803  1.0000  -3.1090   0.0000   0.0000   0.0000   0.3110
  10.500   1.6311   0.02117   0.01533  -0.1208  0.2546  1.0000  -3.3632   0.0000   0.0000   0.0000   0.3068
  11.000   1.6498   0.02356   0.01768  -0.1172  0.2283  1.0000  -3.6148   0.0000   0.0000   0.0000   0.3028
  11.500   1.6652   0.02629   0.02038  -0.1135  0.2027  1.0000  -3.8678   0.0000   0.0000   0.0000   0.2990
  12.000   1.6783   0.02933   0.02338  -0.1100  0.1797  1.0000  -4.1179   0.0000   0.0000   0.0000   0.2954
  12.500   1.6880   0.03274   0.02675  -0.1065  0.1575  1.0000  -4.3594   0.0000   0.0000   0.0000   0.2919
  13.000   1.6939   0.03661   0.03058  -0.1030  0.1361  1.0000  -4.5895   0.0000   0.0000   0.0000   0.2886
  13.500   1.6972   0.04091   0.03486  -0.0998  0.1165  1.0000  -4.8118   0.0000   0.0000   0.0000   0.2855
  14.000   1.6981   0.04568   0.03962  -0.0969  0.0996  1.0000  -5.0254   0.0000   0.0000   0.0000   0.2827
  14.500   1.7026   0.05033   0.04434  -0.0947  0.0870  1.0000  -5.2568   0.0000   0.0000   0.0000   0.2801
  15.000   1.7033   0.05556   0.04963  -0.0926  0.0758  1.0000  -5.4714   0.0000   0.0000   0.0000   0.2778
  15.500   1.6982   0.06166   0.05578  -0.0908  0.0656  1.0000  -5.6599   0.0000   0.0000   0.0000   0.2757
  16.000   1.6985   0.06738   0.06165  -0.0896  0.0581  1.0000  -5.8728   0.0000   0.0000   0.0000   0.2738
  16.500   1.6867   0.07475   0.06907  -0.0887  0.0498  1.0000  -6.0295   0.0000   0.0000   0.0000   0.2724
  17.000   1.6813   0.08154   0.07603  -0.0882  0.0444  1.0000  -6.2189   0.0000   0.0000   0.0000   0.2711
  17.500   1.6641   0.09014   0.08474  -0.0884  0.0386  1.0000  -6.3658   0.0000   0.0000   0.0000   0.2705
  18.000   1.6518   0.09824   0.09303  -0.0889  0.0347  1.0000  -6.5393   0.0000   0.0000   0.0000   0.2700
  18.500   1.6378   0.10678   0.10173  -0.0901  0.0312  1.0000  -6.7021   0.0000   0.0000   0.0000   0.2699
  19.000   1.6108   0.11759   0.11269  -0.0924  0.0278  1.0000  -6.7631   0.0000   0.0000   0.0000   0.2710
  19.500   1.5989   0.12622   0.12154  -0.0946  0.0259  1.0000  -6.9194   0.0000   0.0000   0.0000   0.2715
  20.000   1.5864   0.13506   0.13055  -0.0974  0.0239  1.0000  -7.0658   0.0000   0.0000   0.0000   0.2725
  20.500   1.5690   0.14501   0.14065  -0.1013  0.0221  1.0000  -7.1617   0.0000   0.0000   0.0000   0.2743
  21.000   1.5447   0.15636   0.15215  -0.1063  0.0201  1.0000  -7.1713   0.0000   0.0000   0.0000   0.2773
  21.500   1.5398   0.16448   0.16046  -0.1103  0.0192  1.0000  -7.3366   0.0000   0.0000   0.0000   0.2787
  22.000   1.5322   0.17323   0.16940  -0.1150  0.0182  1.0000  -7.4667   0.0000   0.0000   0.0000   0.2807
  22.500   1.5245   0.18213   0.17846  -0.1202  0.0171  1.0000  -7.5867   0.0000   0.0000   0.0000   0.2831
  23.000   1.5175   0.19104   0.18751  -0.1257  0.0162  1.0000  -7.7096   0.0000   0.0000   0.0000   0.2857
  23.500   1.5114   0.19974   0.19631  -0.1314  0.0152  1.0000  -7.8196   0.0000   0.0000   0.0000   0.2883
  24.000   1.5078   0.20790   0.20463  -0.1369  0.0143  1.0000  -7.9332   0.0000   0.0000   0.0000   0.2906
  24.500   1.5050   0.21653   0.21344  -0.1431  0.0138  1.0000  -8.0561   0.0000   0.0000   0.0000   0.2934
  25.000   1.4997   0.22593   0.22304  -0.1501  0.0133  1.0000  -8.1289   0.0000   0.0000   0.0000   0.2969
  25.500   1.4961   0.23505   0.23235  -0.1571  0.0128  1.0000  -8.2044   0.0000   0.0000   0.0000   0.3003
  26.000   1.4891   0.24534   0.24283  -0.1652  0.0123  1.0000  -8.2090   0.0000   0.0000   0.0000   0.3047
  26.500   1.4804   0.25652   0.25419  -0.1741  0.0119  1.0000  -8.1531   0.0000   0.0000   0.0000   0.3099
  27.000   1.4699   0.26873   0.26658  -0.1839  0.0115  1.0000  -8.0212   0.0000   0.0000   0.0000   0.3160


