xflr5 v6.59

 Calculated polar for: revR_90_revT

 1 1 Reynolds number fixed          Mach number fixed         

 xtrf =   1.000 (top)        1.000 (bottom)
 Mach =   0.000     Re =     0.495 e 6     Ncrit =   9.000

  alpha     CL        CD       CDp       Cm    Top Xtr Bot Xtr   Cpmin    Chinge    XCp    
 ------- -------- --------- --------- -------- ------- ------- -------- --------- ---------
  -5.000   0.1006   0.01192   0.00549  -0.1450  0.7750  0.0430  -2.3531   0.0000   0.0000   0.0000   1.7273
  -4.500   0.1576   0.01115   0.00462  -0.1455  0.7678  0.0528  -2.0834   0.0000   0.0000   0.0000   1.1928
  -4.000   0.2146   0.01064   0.00412  -0.1459  0.7602  0.0719  -1.8205   0.0000   0.0000   0.0000   0.9424
  -3.500   0.2717   0.01016   0.00370  -0.1463  0.7524  0.1031  -1.5626   0.0000   0.0000   0.0000   0.7967
  -3.000   0.3292   0.00977   0.00343  -0.1467  0.7452  0.1533  -1.3128   0.0000   0.0000   0.0000   0.7015
  -2.500   0.3869   0.00953   0.00332  -0.1473  0.7368  0.2154  -1.0761   0.0000   0.0000   0.0000   0.6345
  -2.000   0.4438   0.00921   0.00319  -0.1477  0.7289  0.2805  -0.8569   0.0000   0.0000   0.0000   0.5850
  -1.500   0.5012   0.00893   0.00306  -0.1480  0.7199  0.3577  -0.8134   0.0000   0.0000   0.0000   0.5464
  -1.000   0.5589   0.00875   0.00308  -0.1486  0.7109  0.4514  -0.8552   0.0000   0.0000   0.0000   0.5159
  -0.500   0.6153   0.00844   0.00311  -0.1488  0.7023  0.5663  -0.8996   0.0000   0.0000   0.0000   0.4910
   0.000   0.6712   0.00823   0.00312  -0.1486  0.6916  0.6742  -0.9443   0.0000   0.0000   0.0000   0.4698
   0.500   0.7260   0.00820   0.00327  -0.1482  0.6820  0.7590  -0.9883   0.0000   0.0000   0.0000   0.4518
   1.000   0.7801   0.00816   0.00332  -0.1475  0.6714  0.8120  -1.0388   0.0000   0.0000   0.0000   0.4361
   1.500   0.8314   0.00815   0.00335  -0.1462  0.6587  0.8656  -1.0923   0.0000   0.0000   0.0000   0.4222
   2.000   0.8780   0.00803   0.00334  -0.1439  0.6458  0.9266  -1.1432   0.0000   0.0000   0.0000   0.4095
   2.500   0.9364   0.00808   0.00332  -0.1444  0.6317  1.0000  -1.2109   0.0000   0.0000   0.0000   0.3992
   3.000   0.9934   0.00825   0.00342  -0.1448  0.6157  1.0000  -1.2794   0.0000   0.0000   0.0000   0.3901
   3.500   1.0491   0.00846   0.00357  -0.1449  0.5973  1.0000  -1.3477   0.0000   0.0000   0.0000   0.3819
   4.000   1.1038   0.00875   0.00378  -0.1449  0.5800  1.0000  -1.4190   0.0000   0.0000   0.0000   0.3744
   4.500   1.1571   0.00910   0.00403  -0.1447  0.5605  1.0000  -1.5005   0.0000   0.0000   0.0000   0.3674
   5.000   1.2092   0.00947   0.00434  -0.1442  0.5372  1.0000  -1.5832   0.0000   0.0000   0.0000   0.3610
   5.500   1.2603   0.00990   0.00471  -0.1436  0.5140  1.0000  -1.6820   0.0000   0.0000   0.0000   0.3550
   6.000   1.3097   0.01041   0.00516  -0.1427  0.4897  1.0000  -1.7883   0.0000   0.0000   0.0000   0.3493
   6.500   1.3563   0.01103   0.00568  -0.1414  0.4614  1.0000  -1.9122   0.0000   0.0000   0.0000   0.3438
   7.000   1.4013   0.01171   0.00629  -0.1398  0.4349  1.0000  -2.0419   0.0000   0.0000   0.0000   0.3386
   7.500   1.4427   0.01251   0.00700  -0.1377  0.4038  1.0000  -2.1933   0.0000   0.0000   0.0000   0.3335
   8.000   1.4816   0.01335   0.00779  -0.1352  0.3766  1.0000  -2.3436   0.0000   0.0000   0.0000   0.3285
   8.500   1.5147   0.01436   0.00873  -0.1318  0.3470  1.0000  -2.5094   0.0000   0.0000   0.0000   0.3235
   9.000   1.5442   0.01558   0.00988  -0.1280  0.3185  1.0000  -2.7270   0.0000   0.0000   0.0000   0.3186
   9.500   1.5721   0.01697   0.01122  -0.1244  0.2930  1.0000  -2.9978   0.0000   0.0000   0.0000   0.3139
  10.000   1.5970   0.01866   0.01287  -0.1207  0.2677  1.0000  -3.2666   0.0000   0.0000   0.0000   0.3095
  10.500   1.6160   0.02085   0.01496  -0.1167  0.2381  1.0000  -3.5295   0.0000   0.0000   0.0000   0.3052
  11.000   1.6319   0.02341   0.01743  -0.1128  0.2090  1.0000  -3.7887   0.0000   0.0000   0.0000   0.3012
  11.500   1.6468   0.02621   0.02016  -0.1091  0.1826  1.0000  -4.0499   0.0000   0.0000   0.0000   0.2974
  12.000   1.6599   0.02925   0.02316  -0.1056  0.1582  1.0000  -4.3094   0.0000   0.0000   0.0000   0.2938
  12.500   1.6693   0.03272   0.02658  -0.1021  0.1361  1.0000  -4.5582   0.0000   0.0000   0.0000   0.2903
  13.000   1.6751   0.03660   0.03043  -0.0987  0.1159  1.0000  -4.7955   0.0000   0.0000   0.0000   0.2871
  13.500   1.6808   0.04072   0.03455  -0.0958  0.1000  1.0000  -5.0354   0.0000   0.0000   0.0000   0.2840
  14.000   1.6871   0.04495   0.03885  -0.0932  0.0867  1.0000  -5.2801   0.0000   0.0000   0.0000   0.2812
  14.500   1.6889   0.04988   0.04384  -0.0908  0.0745  1.0000  -5.5058   0.0000   0.0000   0.0000   0.2787
  15.000   1.6872   0.05540   0.04939  -0.0888  0.0641  1.0000  -5.7162   0.0000   0.0000   0.0000   0.2764


