xflr5 v6.59

 Calculated polar for: revR_60_revT

 1 1 Reynolds number fixed          Mach number fixed         

 xtrf =   1.000 (top)        1.000 (bottom)
 Mach =   0.000     Re =     0.095 e 6     Ncrit =   9.000

  alpha     CL        CD       CDp       Cm    Top Xtr Bot Xtr   Cpmin    Chinge    XCp    
 ------- -------- --------- --------- -------- ------- ------- -------- --------- ---------
  -5.000  -0.2313   0.03545   0.02805  -0.0953  0.9293  0.0940  -2.5176   0.0000   0.0000   0.0000  -0.1759
  -4.500  -0.1433   0.03166   0.02326  -0.1023  0.9227  0.1043  -2.2794   0.0000   0.0000   0.0000  -0.4839
  -4.000  -0.0934   0.02924   0.02061  -0.1025  0.9096  0.1205  -2.0596   0.0000   0.0000   0.0000  -0.8754
  -3.500  -0.0119   0.02727   0.01857  -0.1076  0.9005  0.1628  -1.7624   0.0000   0.0000   0.0000  -9.0045
  -3.000   0.0445   0.02635   0.01790  -0.1086  0.8871  0.2348  -1.5575   0.0000   0.0000   0.0000   2.7382
  -2.500   0.1200   0.02531   0.01741  -0.1127  0.8769  0.3771  -1.3039   0.0000   0.0000   0.0000   1.2036
  -2.000   0.1707   0.02502   0.01785  -0.1122  0.8625  0.5386  -1.0959   0.0000   0.0000   0.0000   0.9152
  -1.500   0.2287   0.02484   0.01826  -0.1102  0.8517  0.7329  -0.8787   0.0000   0.0000   0.0000   0.7366
  -1.000   0.2463   0.02533   0.01892  -0.1014  0.8337  0.8573  -0.7457   0.0000   0.0000   0.0000   0.6646
  -0.500   0.3353   0.02468   0.01803  -0.1052  0.8254  1.0000  -0.6489   0.0000   0.0000   0.0000   0.5646
   0.000   0.3828   0.02562   0.01865  -0.1061  0.8060  1.0000  -0.6828   0.0000   0.0000   0.0000   0.5269
   1.000   0.5195   0.02601   0.01854  -0.1104  0.7789  1.0000  -0.7925   0.0000   0.0000   0.0000   0.4606
   1.500   0.5673   0.02687   0.01926  -0.1098  0.7592  1.0000  -0.8384   0.0000   0.0000   0.0000   0.4409
   2.500   0.6957   0.02669   0.01888  -0.1110  0.7313  1.0000  -0.9680   0.0000   0.0000   0.0000   0.4056
   3.000   0.7459   0.02715   0.01931  -0.1099  0.7116  1.0000  -1.0263   0.0000   0.0000   0.0000   0.3928
   4.000   0.8753   0.02600   0.01813  -0.1098  0.6823  1.0000  -1.1899   0.0000   0.0000   0.0000   0.3698
   4.500   0.9277   0.02601   0.01819  -0.1086  0.6617  1.0000  -1.2716   0.0000   0.0000   0.0000   0.3607
   5.000   0.9836   0.02580   0.01805  -0.1076  0.6419  1.0000  -1.3647   0.0000   0.0000   0.0000   0.3525
   5.500   1.0444   0.02522   0.01752  -0.1070  0.6225  1.0000  -1.4859   0.0000   0.0000   0.0000   0.3449
   6.000   1.1063   0.02454   0.01688  -0.1065  0.6013  1.0000  -1.6173   0.0000   0.0000   0.0000   0.3381
   6.500   1.1626   0.02422   0.01662  -0.1054  0.5762  1.0000  -1.7773   0.0000   0.0000   0.0000   0.3318
   7.000   1.2159   0.02411   0.01657  -0.1040  0.5480  1.0000  -1.9456   0.0000   0.0000   0.0000   0.3260
   7.500   1.2700   0.02407   0.01652  -0.1027  0.5178  1.0000  -2.1713   0.0000   0.0000   0.0000   0.3206
   8.000   1.3210   0.02436   0.01673  -0.1012  0.4851  1.0000  -2.4592   0.0000   0.0000   0.0000   0.3155
   8.500   1.3591   0.02517   0.01766  -0.0981  0.4486  1.0000  -2.7466   0.0000   0.0000   0.0000   0.3104
   9.000   1.4020   0.02604   0.01840  -0.0957  0.4134  1.0000  -3.0699   0.0000   0.0000   0.0000   0.3057
   9.500   1.4284   0.02732   0.01978  -0.0913  0.3754  1.0000  -3.3475   0.0000   0.0000   0.0000   0.3005
  10.000   1.4534   0.02881   0.02119  -0.0868  0.3382  1.0000  -3.6287   0.0000   0.0000   0.0000   0.2955
  10.500   1.4654   0.03068   0.02317  -0.0809  0.3029  1.0000  -3.8647   0.0000   0.0000   0.0000   0.2901
  11.000   1.4748   0.03305   0.02541  -0.0752  0.2684  1.0000  -4.0929   0.0000   0.0000   0.0000   0.2851
  11.500   1.4720   0.03613   0.02858  -0.0692  0.2350  1.0000  -4.2756   0.0000   0.0000   0.0000   0.2802
  12.000   1.4702   0.03978   0.03207  -0.0643  0.2035  1.0000  -4.4647   0.0000   0.0000   0.0000   0.2760
  12.500   1.4655   0.04419   0.03648  -0.0600  0.1747  1.0000  -4.6306   0.0000   0.0000   0.0000   0.2722
  13.000   1.4614   0.04908   0.04142  -0.0564  0.1499  1.0000  -4.7866   0.0000   0.0000   0.0000   0.2689
  13.500   1.4574   0.05434   0.04672  -0.0533  0.1286  1.0000  -4.9353   0.0000   0.0000   0.0000   0.2660
  14.000   1.4551   0.05979   0.05214  -0.0507  0.1102  1.0000  -5.0843   0.0000   0.0000   0.0000   0.2632
  14.500   1.4475   0.06593   0.05865  -0.0488  0.0974  1.0000  -5.1994   0.0000   0.0000   0.0000   0.2611
  15.000   1.4434   0.07250   0.06543  -0.0471  0.0860  1.0000  -5.3131   0.0000   0.0000   0.0000   0.2590


