xflr5 v6.59

 Calculated polar for: revR_05_revT

 1 1 Reynolds number fixed          Mach number fixed         

 xtrf =   1.000 (top)        1.000 (bottom)
 Mach =   0.000     Re =     0.375 e 6     Ncrit =   9.000

  alpha     CL        CD       CDp       Cm    Top Xtr Bot Xtr   Cpmin    Chinge    XCp    
 ------- -------- --------- --------- -------- ------- ------- -------- --------- ---------
  -5.000  -0.2427   0.01159   0.00506  -0.0684  0.9056  0.0631  -2.5860   0.0000   0.0000   0.0000  -0.0411
  -4.500  -0.1909   0.01081   0.00426  -0.0675  0.8885  0.0916  -2.2176   0.0000   0.0000   0.0000  -0.1137
  -4.000  -0.1398   0.01015   0.00372  -0.0665  0.8717  0.1476  -1.8542   0.0000   0.0000   0.0000  -0.2375
  -3.500  -0.0892   0.00957   0.00337  -0.0656  0.8553  0.2207  -1.5050   0.0000   0.0000   0.0000  -0.5011
  -3.000  -0.0386   0.00892   0.00306  -0.0647  0.8394  0.3338  -1.2128   0.0000   0.0000   0.0000  -1.4554
  -2.500   0.0113   0.00826   0.00281  -0.0635  0.8230  0.4750  -1.0090   0.0000   0.0000   0.0000   5.9448
  -2.000   0.0603   0.00773   0.00278  -0.0620  0.8078  0.6271  -0.8146   0.0000   0.0000   0.0000   1.2887
  -1.500   0.1119   0.00758   0.00278  -0.0605  0.7919  0.7113  -0.6242   0.0000   0.0000   0.0000   0.7944
  -0.500   0.2160   0.00751   0.00277  -0.0576  0.7575  0.8098  -0.5423   0.0000   0.0000   0.0000   0.5164
   0.000   0.2678   0.00753   0.00277  -0.0561  0.7402  0.8460  -0.5866   0.0000   0.0000   0.0000   0.4584
   0.500   0.3182   0.00752   0.00275  -0.0542  0.7203  0.8770  -0.6368   0.0000   0.0000   0.0000   0.4186
   1.000   0.3680   0.00755   0.00274  -0.0522  0.7008  0.9091  -0.6871   0.0000   0.0000   0.0000   0.3895
   1.500   0.4199   0.00758   0.00273  -0.0507  0.6774  0.9419  -0.7420   0.0000   0.0000   0.0000   0.3679
   2.000   0.4882   0.00767   0.00276  -0.0529  0.6522  0.9660  -0.8166   0.0000   0.0000   0.0000   0.3552
   2.500   0.5689   0.00780   0.00283  -0.0581  0.6231  0.9799  -0.9060   0.0000   0.0000   0.0000   0.3485
   3.000   0.6461   0.00798   0.00289  -0.0628  0.5880  0.9942  -1.0095   0.0000   0.0000   0.0000   0.3431
   3.500   0.6990   0.00820   0.00299  -0.0627  0.5555  1.0000  -1.1179   0.0000   0.0000   0.0000   0.3352
   4.000   0.7361   0.00849   0.00317  -0.0592  0.5202  1.0000  -1.2202   0.0000   0.0000   0.0000   0.3255
   4.500   0.7792   0.00891   0.00344  -0.0568  0.4851  1.0000  -1.3836   0.0000   0.0000   0.0000   0.3174
   5.000   0.8247   0.00936   0.00377  -0.0548  0.4442  1.0000  -1.6824   0.0000   0.0000   0.0000   0.3106
   5.500   0.8714   0.00986   0.00419  -0.0532  0.4082  1.0000  -2.0140   0.0000   0.0000   0.0000   0.3046
   6.000   0.9159   0.01049   0.00465  -0.0512  0.3612  1.0000  -2.3555   0.0000   0.0000   0.0000   0.2990
   6.500   0.9588   0.01125   0.00519  -0.0491  0.3067  1.0000  -2.7066   0.0000   0.0000   0.0000   0.2938
   7.000   0.9998   0.01214   0.00585  -0.0468  0.2524  1.0000  -3.0639   0.0000   0.0000   0.0000   0.2888
   7.500   1.0390   0.01316   0.00666  -0.0443  0.2012  1.0000  -3.4256   0.0000   0.0000   0.0000   0.2840
   8.000   1.0750   0.01435   0.00759  -0.0414  0.1451  1.0000  -3.7887   0.0000   0.0000   0.0000   0.2793
   8.500   1.1084   0.01562   0.00865  -0.0381  0.1031  1.0000  -4.1638   0.0000   0.0000   0.0000   0.2745
   9.000   1.1381   0.01696   0.00983  -0.0342  0.0725  1.0000  -4.5294   0.0000   0.0000   0.0000   0.2696
   9.500   1.1626   0.01820   0.01106  -0.0294  0.0538  1.0000  -4.8728   0.0000   0.0000   0.0000   0.2641
  10.000   1.1821   0.01968   0.01251  -0.0241  0.0382  1.0000  -5.1815   0.0000   0.0000   0.0000   0.2586
  10.500   1.1872   0.02210   0.01491  -0.0174  0.0231  1.0000  -5.3463   0.0000   0.0000   0.0000   0.2521
  11.000   1.1987   0.02433   0.01734  -0.0123  0.0198  1.0000  -5.5557   0.0000   0.0000   0.0000   0.2470
  11.500   1.2098   0.02682   0.01999  -0.0081  0.0181  1.0000  -5.7931   0.0000   0.0000   0.0000   0.2426
  12.000   1.2175   0.02981   0.02313  -0.0044  0.0169  1.0000  -6.0249   0.0000   0.0000   0.0000   0.2387
  12.500   1.2185   0.03367   0.02720  -0.0011  0.0159  1.0000  -6.2072   0.0000   0.0000   0.0000   0.2352
  13.000   1.2132   0.03857   0.03233   0.0016  0.0152  1.0000  -6.3273   0.0000   0.0000   0.0000   0.2321
  13.500   1.2055   0.04430   0.03833   0.0035  0.0146  1.0000  -6.4038   0.0000   0.0000   0.0000   0.2296
  14.000   1.2116   0.04886   0.04311   0.0041  0.0144  1.0000  -6.6209   0.0000   0.0000   0.0000   0.2282
  14.500   1.2139   0.05422   0.04871   0.0041  0.0142  1.0000  -6.8012   0.0000   0.0000   0.0000   0.2272
  15.000   1.2125   0.06042   0.05517   0.0033  0.0140  1.0000  -6.9435   0.0000   0.0000   0.0000   0.2268


