xflr5 v6.59

 Calculated polar for: revR_35_revT

 1 1 Reynolds number fixed          Mach number fixed         

 xtrf =   1.000 (top)        1.000 (bottom)
 Mach =   0.000     Re =     0.085 e 6     Ncrit =   9.000

  alpha     CL        CD       CDp       Cm    Top Xtr Bot Xtr   Cpmin    Chinge    XCp    
 ------- -------- --------- --------- -------- ------- ------- -------- --------- ---------
  -5.000  -0.3841   0.03479   0.02689  -0.0600  0.9846  0.0982  -2.7286   0.0000   0.0000   0.0000   0.0864
  -4.500  -0.3090   0.02987   0.02136  -0.0657  0.9746  0.1105  -2.5024   0.0000   0.0000   0.0000   0.0290
  -4.000  -0.2261   0.02714   0.01822  -0.0716  0.9651  0.1344  -2.2100   0.0000   0.0000   0.0000  -0.0766
  -3.500  -0.1552   0.02528   0.01633  -0.0752  0.9517  0.1813  -1.9239   0.0000   0.0000   0.0000  -0.2473
  -3.000  -0.0768   0.02373   0.01533  -0.0804  0.9402  0.2990  -1.6027   0.0000   0.0000   0.0000  -0.8188
  -2.500  -0.0093   0.02264   0.01524  -0.0832  0.9259  0.5089  -1.3182   0.0000   0.0000   0.0000  -8.8559
  -2.000   0.0381   0.02267   0.01605  -0.0800  0.9101  0.7227  -1.1154   0.0000   0.0000   0.0000   2.3806
  -1.500   0.0841   0.02303   0.01652  -0.0745  0.8965  0.8703  -0.9186   0.0000   0.0000   0.0000   1.1463
  -1.000   0.1610   0.02302   0.01630  -0.0779  0.8782  1.0000  -0.6879   0.0000   0.0000   0.0000   0.7373
  -0.500   0.2228   0.02353   0.01641  -0.0812  0.8591  1.0000  -0.5499   0.0000   0.0000   0.0000   0.6157
   0.000   0.2984   0.02397   0.01654  -0.0857  0.8431  1.0000  -0.6029   0.0000   0.0000   0.0000   0.5369
   0.500   0.3762   0.02411   0.01643  -0.0896  0.8275  1.0000  -0.6630   0.0000   0.0000   0.0000   0.4869
   1.000   0.4320   0.02463   0.01678  -0.0900  0.8066  1.0000  -0.7118   0.0000   0.0000   0.0000   0.4564
   1.500   0.4884   0.02514   0.01717  -0.0902  0.7862  1.0000  -0.7661   0.0000   0.0000   0.0000   0.4321
   2.000   0.5472   0.02550   0.01745  -0.0904  0.7669  1.0000  -0.8252   0.0000   0.0000   0.0000   0.4121
   2.500   0.6255   0.02465   0.01653  -0.0918  0.7542  1.0000  -0.9064   0.0000   0.0000   0.0000   0.3932
   3.000   0.6789   0.02482   0.01669  -0.0907  0.7321  1.0000  -0.9740   0.0000   0.0000   0.0000   0.3795
   3.500   0.7334   0.02488   0.01678  -0.0896  0.7101  1.0000  -1.0475   0.0000   0.0000   0.0000   0.3675
   4.000   0.7891   0.02478   0.01672  -0.0884  0.6877  1.0000  -1.1334   0.0000   0.0000   0.0000   0.3569
   4.500   0.8463   0.02448   0.01648  -0.0872  0.6648  1.0000  -1.2353   0.0000   0.0000   0.0000   0.3474
   5.000   0.9043   0.02410   0.01618  -0.0860  0.6410  1.0000  -1.3559   0.0000   0.0000   0.0000   0.3389
   5.500   0.9634   0.02361   0.01573  -0.0849  0.6157  1.0000  -1.5079   0.0000   0.0000   0.0000   0.3313
   6.000   1.0246   0.02305   0.01516  -0.0839  0.5884  1.0000  -1.6942   0.0000   0.0000   0.0000   0.3245
   6.500   1.0708   0.02343   0.01570  -0.0816  0.5538  1.0000  -1.9537   0.0000   0.0000   0.0000   0.3183
   7.000   1.1272   0.02326   0.01546  -0.0802  0.5191  1.0000  -2.2986   0.0000   0.0000   0.0000   0.3125
   7.500   1.1717   0.02385   0.01611  -0.0778  0.4792  1.0000  -2.6163   0.0000   0.0000   0.0000   0.3070
   8.000   1.2166   0.02449   0.01673  -0.0753  0.4379  1.0000  -2.9487   0.0000   0.0000   0.0000   0.3019
   8.500   1.2564   0.02535   0.01752  -0.0723  0.3935  1.0000  -3.2754   0.0000   0.0000   0.0000   0.2968
   9.000   1.2894   0.02656   0.01871  -0.0687  0.3471  1.0000  -3.5850   0.0000   0.0000   0.0000   0.2917
   9.500   1.3147   0.02822   0.02029  -0.0643  0.2998  1.0000  -3.8813   0.0000   0.0000   0.0000   0.2866
  10.000   1.3288   0.03034   0.02231  -0.0589  0.2516  1.0000  -4.1341   0.0000   0.0000   0.0000   0.2812
  10.500   1.3343   0.03310   0.02485  -0.0528  0.2080  1.0000  -4.3453   0.0000   0.0000   0.0000   0.2757
  11.000   1.3333   0.03649   0.02823  -0.0471  0.1706  1.0000  -4.5170   0.0000   0.0000   0.0000   0.2706
  11.500   1.3422   0.04071   0.03226  -0.0428  0.1392  1.0000  -4.7003   0.0000   0.0000   0.0000   0.2664
  12.000   1.3468   0.04517   0.03680  -0.0390  0.1157  1.0000  -4.8540   0.0000   0.0000   0.0000   0.2626
  12.500   1.3591   0.05014   0.04187  -0.0359  0.0966  1.0000  -5.0105   0.0000   0.0000   0.0000   0.2592
  13.000   1.3546   0.05517   0.04728  -0.0330  0.0848  1.0000  -5.1048   0.0000   0.0000   0.0000   0.2562
  13.500   1.3619   0.06186   0.05421  -0.0305  0.0752  1.0000  -5.1866   0.0000   0.0000   0.0000   0.2535
  14.000   1.3474   0.06923   0.06214  -0.0287  0.0706  1.0000  -5.1798   0.0000   0.0000   0.0000   0.2515
  14.500   1.3240   0.07779   0.07119  -0.0283  0.0671  1.0000  -5.1441   0.0000   0.0000   0.0000   0.2507
  15.000   1.2914   0.08798   0.08182  -0.0298  0.0650  1.0000  -5.0647   0.0000   0.0000   0.0000   0.2514


