xflr5 v6.59

 Calculated polar for: revR_30_revT

 1 1 Reynolds number fixed          Mach number fixed         

 xtrf =   1.000 (top)        1.000 (bottom)
 Mach =   0.000     Re =     0.455 e 6     Ncrit =   9.000

  alpha     CL        CD       CDp       Cm    Top Xtr Bot Xtr   Cpmin    Chinge    XCp    
 ------- -------- --------- --------- -------- ------- ------- -------- --------- ---------
  -5.000  -0.1511   0.01131   0.00487  -0.0888  0.8424  0.0526  -2.5305   0.0000   0.0000   0.0000  -0.3542
  -4.500  -0.0972   0.01055   0.00403  -0.0884  0.8295  0.0712  -2.1777   0.0000   0.0000   0.0000  -0.6812
  -4.000  -0.0426   0.00998   0.00352  -0.0882  0.8177  0.1079  -1.8246   0.0000   0.0000   0.0000  -1.8627
  -3.500   0.0120   0.00946   0.00316  -0.0881  0.8060  0.1663  -1.5009   0.0000   0.0000   0.0000   7.7069
  -3.000   0.0669   0.00901   0.00291  -0.0881  0.7943  0.2415  -1.2415   0.0000   0.0000   0.0000   1.5868
  -2.500   0.1213   0.00850   0.00267  -0.0880  0.7815  0.3404  -1.0237   0.0000   0.0000   0.0000   0.9832
  -2.000   0.1759   0.00805   0.00255  -0.0879  0.7699  0.4525  -0.8152   0.0000   0.0000   0.0000   0.7536
  -1.500   0.2292   0.00756   0.00248  -0.0873  0.7572  0.5999  -0.6219   0.0000   0.0000   0.0000   0.6327
  -1.000   0.2828   0.00736   0.00251  -0.0865  0.7434  0.6963  -0.5981   0.0000   0.0000   0.0000   0.5563
  -0.500   0.3368   0.00733   0.00253  -0.0856  0.7298  0.7600  -0.6412   0.0000   0.0000   0.0000   0.5037
   0.000   0.3907   0.00728   0.00256  -0.0848  0.7157  0.8042  -0.6864   0.0000   0.0000   0.0000   0.4657
   0.500   0.4438   0.00729   0.00257  -0.0837  0.6997  0.8401  -0.7347   0.0000   0.0000   0.0000   0.4367
   1.000   0.4955   0.00732   0.00257  -0.0823  0.6830  0.8758  -0.7866   0.0000   0.0000   0.0000   0.4136
   1.500   0.5450   0.00727   0.00259  -0.0804  0.6645  0.9118  -0.8421   0.0000   0.0000   0.0000   0.3946
   2.000   0.5970   0.00725   0.00257  -0.0791  0.6441  0.9534  -0.8999   0.0000   0.0000   0.0000   0.3790
   2.500   0.6704   0.00731   0.00256  -0.0828  0.6204  0.9974  -0.9794   0.0000   0.0000   0.0000   0.3695
   3.000   0.7257   0.00752   0.00266  -0.0830  0.5964  1.0000  -1.0527   0.0000   0.0000   0.0000   0.3599
   3.500   0.7797   0.00780   0.00281  -0.0828  0.5682  1.0000  -1.1334   0.0000   0.0000   0.0000   0.3512
   4.000   0.8332   0.00813   0.00303  -0.0825  0.5391  1.0000  -1.2305   0.0000   0.0000   0.0000   0.3435
   4.500   0.8865   0.00849   0.00331  -0.0821  0.5075  1.0000  -1.3417   0.0000   0.0000   0.0000   0.3367
   5.000   0.9382   0.00896   0.00364  -0.0816  0.4727  1.0000  -1.4838   0.0000   0.0000   0.0000   0.3304
   5.500   0.9898   0.00945   0.00405  -0.0810  0.4380  1.0000  -1.6716   0.0000   0.0000   0.0000   0.3247
   6.000   1.0394   0.01009   0.00452  -0.0801  0.3978  1.0000  -1.9889   0.0000   0.0000   0.0000   0.3194
   6.500   1.0874   0.01084   0.00508  -0.0791  0.3491  1.0000  -2.3172   0.0000   0.0000   0.0000   0.3145
   7.000   1.1342   0.01169   0.00574  -0.0780  0.3018  1.0000  -2.6715   0.0000   0.0000   0.0000   0.3099
   7.500   1.1792   0.01266   0.00651  -0.0767  0.2519  1.0000  -3.0360   0.0000   0.0000   0.0000   0.3055
   8.000   1.2228   0.01372   0.00739  -0.0752  0.2095  1.0000  -3.4089   0.0000   0.0000   0.0000   0.3013
   8.500   1.2646   0.01486   0.00836  -0.0735  0.1687  1.0000  -3.7880   0.0000   0.0000   0.0000   0.2972
   9.000   1.3012   0.01630   0.00959  -0.0711  0.1244  1.0000  -4.1573   0.0000   0.0000   0.0000   0.2931
   9.500   1.3347   0.01776   0.01091  -0.0683  0.0918  1.0000  -4.5224   0.0000   0.0000   0.0000   0.2889
  10.000   1.3641   0.01931   0.01238  -0.0650  0.0687  1.0000  -4.8759   0.0000   0.0000   0.0000   0.2846
  10.500   1.3903   0.02105   0.01409  -0.0616  0.0517  1.0000  -5.2174   0.0000   0.0000   0.0000   0.2805
  11.000   1.4126   0.02314   0.01619  -0.0581  0.0378  1.0000  -5.5335   0.0000   0.0000   0.0000   0.2765
  11.500   1.4262   0.02606   0.01915  -0.0543  0.0254  1.0000  -5.7725   0.0000   0.0000   0.0000   0.2726
  12.000   1.4373   0.02939   0.02256  -0.0510  0.0199  1.0000  -5.9880   0.0000   0.0000   0.0000   0.2691
  12.500   1.4283   0.03480   0.02826  -0.0471  0.0169  1.0000  -6.0479   0.0000   0.0000   0.0000   0.2657
  13.000   1.4405   0.03854   0.03220  -0.0452  0.0164  1.0000  -6.3029   0.0000   0.0000   0.0000   0.2632
  13.500   1.4469   0.04299   0.03686  -0.0436  0.0157  1.0000  -6.5277   0.0000   0.0000   0.0000   0.2609
  14.000   1.4491   0.04813   0.04221  -0.0423  0.0151  1.0000  -6.7272   0.0000   0.0000   0.0000   0.2590
  14.500   1.4472   0.05399   0.04829  -0.0416  0.0146  1.0000  -6.9005   0.0000   0.0000   0.0000   0.2575
  15.000   1.4434   0.06050   0.05502  -0.0416  0.0141  1.0000  -7.0580   0.0000   0.0000   0.0000   0.2565


