xflr5 v6.59

 Calculated polar for: revR_95_revT

 1 1 Reynolds number fixed          Mach number fixed         

 xtrf =   1.000 (top)        1.000 (bottom)
 Mach =   0.000     Re =     0.335 e 6     Ncrit =   9.000

  alpha     CL        CD       CDp       Cm    Top Xtr Bot Xtr   Cpmin    Chinge    XCp    
 ------- -------- --------- --------- -------- ------- ------- -------- --------- ---------
  -5.000   0.1197   0.01444   0.00765  -0.1504  0.7954  0.0507  -2.3029   0.0000   0.0000   0.0000   1.5378
  -4.500   0.1755   0.01360   0.00669  -0.1506  0.7885  0.0600  -2.0571   0.0000   0.0000   0.0000   1.1271
  -4.000   0.2314   0.01281   0.00593  -0.1509  0.7805  0.0802  -1.8144   0.0000   0.0000   0.0000   0.9147
  -3.500   0.2890   0.01224   0.00538  -0.1514  0.7725  0.1154  -1.5659   0.0000   0.0000   0.0000   0.7825
  -3.000   0.3469   0.01187   0.00513  -0.1520  0.7646  0.1731  -1.3182   0.0000   0.0000   0.0000   0.6942
  -2.500   0.4028   0.01150   0.00499  -0.1524  0.7571  0.2412  -1.0895   0.0000   0.0000   0.0000   0.6323
  -2.000   0.4602   0.01115   0.00480  -0.1528  0.7484  0.3152  -0.8664   0.0000   0.0000   0.0000   0.5845
  -1.500   0.5186   0.01091   0.00471  -0.1534  0.7402  0.4071  -0.8293   0.0000   0.0000   0.0000   0.5470
  -1.000   0.5741   0.01063   0.00474  -0.1534  0.7310  0.5087  -0.8694   0.0000   0.0000   0.0000   0.5175
  -0.500   0.6301   0.01033   0.00475  -0.1533  0.7217  0.6306  -0.9139   0.0000   0.0000   0.0000   0.4926
   0.000   0.6852   0.01030   0.00488  -0.1527  0.7128  0.7360  -0.9582   0.0000   0.0000   0.0000   0.4714
   0.500   0.7355   0.01016   0.00493  -0.1512  0.7019  0.8069  -0.9998   0.0000   0.0000   0.0000   0.4533
   1.000   0.7851   0.01005   0.00485  -0.1492  0.6919  0.8687  -1.0470   0.0000   0.0000   0.0000   0.4371
   1.500   0.8298   0.00992   0.00482  -0.1463  0.6818  0.9552  -1.0957   0.0000   0.0000   0.0000   0.4226
   2.000   0.8924   0.00989   0.00469  -0.1478  0.6687  1.0000  -1.1567   0.0000   0.0000   0.0000   0.4113
   2.500   0.9508   0.01004   0.00472  -0.1485  0.6560  1.0000  -1.2227   0.0000   0.0000   0.0000   0.4012
   3.000   1.0077   0.01013   0.00474  -0.1488  0.6418  1.0000  -1.2911   0.0000   0.0000   0.0000   0.3920
   3.500   1.0633   0.01033   0.00489  -0.1489  0.6269  1.0000  -1.3591   0.0000   0.0000   0.0000   0.3838
   4.000   1.1183   0.01053   0.00496  -0.1488  0.6092  1.0000  -1.4283   0.0000   0.0000   0.0000   0.3761
   4.500   1.1715   0.01077   0.00520  -0.1485  0.5915  1.0000  -1.5092   0.0000   0.0000   0.0000   0.3691
   5.000   1.2241   0.01110   0.00552  -0.1481  0.5732  1.0000  -1.5904   0.0000   0.0000   0.0000   0.3626
   5.500   1.2747   0.01149   0.00585  -0.1473  0.5511  1.0000  -1.6854   0.0000   0.0000   0.0000   0.3565
   6.000   1.3236   0.01196   0.00626  -0.1463  0.5281  1.0000  -1.7839   0.0000   0.0000   0.0000   0.3507
   6.500   1.3706   0.01252   0.00677  -0.1450  0.5044  1.0000  -1.9053   0.0000   0.0000   0.0000   0.3452
   7.000   1.4143   0.01317   0.00737  -0.1431  0.4772  1.0000  -2.0257   0.0000   0.0000   0.0000   0.3399
   7.500   1.4559   0.01392   0.00808  -0.1410  0.4514  1.0000  -2.1642   0.0000   0.0000   0.0000   0.3347
   8.000   1.4919   0.01481   0.00893  -0.1379  0.4215  1.0000  -2.3069   0.0000   0.0000   0.0000   0.3296
   8.500   1.5226   0.01584   0.00990  -0.1341  0.3947  1.0000  -2.4460   0.0000   0.0000   0.0000   0.3244
   9.000   1.5499   0.01709   0.01111  -0.1300  0.3683  1.0000  -2.6200   0.0000   0.0000   0.0000   0.3193
   9.500   1.5723   0.01868   0.01265  -0.1256  0.3395  1.0000  -2.8093   0.0000   0.0000   0.0000   0.3145
  10.000   1.5930   0.02056   0.01450  -0.1214  0.3132  1.0000  -3.0407   0.0000   0.0000   0.0000   0.3099
  10.500   1.6131   0.02266   0.01660  -0.1176  0.2887  1.0000  -3.2880   0.0000   0.0000   0.0000   0.3057
  11.000   1.6293   0.02518   0.01910  -0.1137  0.2635  1.0000  -3.5276   0.0000   0.0000   0.0000   0.3016
  11.500   1.6419   0.02810   0.02198  -0.1099  0.2378  1.0000  -3.7605   0.0000   0.0000   0.0000   0.2978
  12.000   1.6513   0.03143   0.02530  -0.1062  0.2122  1.0000  -3.9931   0.0000   0.0000   0.0000   0.2942
  12.500   1.6586   0.03507   0.02892  -0.1027  0.1889  1.0000  -4.2209   0.0000   0.0000   0.0000   0.2908
  13.000   1.6647   0.03901   0.03286  -0.0995  0.1667  1.0000  -4.4472   0.0000   0.0000   0.0000   0.2876
  13.500   1.6681   0.04339   0.03725  -0.0965  0.1464  1.0000  -4.6644   0.0000   0.0000   0.0000   0.2846
  14.000   1.6702   0.04815   0.04205  -0.0939  0.1279  1.0000  -4.8779   0.0000   0.0000   0.0000   0.2819
  14.500   1.6689   0.05348   0.04744  -0.0916  0.1115  1.0000  -5.0779   0.0000   0.0000   0.0000   0.2794
  15.000   1.6625   0.05964   0.05361  -0.0896  0.0969  1.0000  -5.2541   0.0000   0.0000   0.0000   0.2773
  15.500   1.6594   0.06569   0.05973  -0.0882  0.0845  1.0000  -5.4457   0.0000   0.0000   0.0000   0.2754
  16.000   1.6543   0.07217   0.06635  -0.0872  0.0743  1.0000  -5.6249   0.0000   0.0000   0.0000   0.2738
  16.500   1.6396   0.08014   0.07437  -0.0867  0.0648  1.0000  -5.7557   0.0000   0.0000   0.0000   0.2727
  17.000   1.6343   0.08711   0.08154  -0.0866  0.0577  1.0000  -5.9350   0.0000   0.0000   0.0000   0.2717
  17.500   1.6160   0.09606   0.09057  -0.0872  0.0508  1.0000  -6.0463   0.0000   0.0000   0.0000   0.2714
  18.000   1.6031   0.10441   0.09914  -0.0882  0.0455  1.0000  -6.1985   0.0000   0.0000   0.0000   0.2712
  18.500   1.5878   0.11339   0.10826  -0.0899  0.0408  1.0000  -6.3317   0.0000   0.0000   0.0000   0.2716
  19.000   1.5640   0.12373   0.11871  -0.0923  0.0363  1.0000  -6.3941   0.0000   0.0000   0.0000   0.2728
  19.500   1.5568   0.13177   0.12700  -0.0947  0.0336  1.0000  -6.5670   0.0000   0.0000   0.0000   0.2733
  20.000   1.5455   0.14067   0.13605  -0.0980  0.0309  1.0000  -6.7032   0.0000   0.0000   0.0000   0.2746
  20.500   1.5295   0.15033   0.14579  -0.1019  0.0280  1.0000  -6.7859   0.0000   0.0000   0.0000   0.2765
  21.000   1.5241   0.15831   0.15398  -0.1055  0.0261  1.0000  -6.9365   0.0000   0.0000   0.0000   0.2777
  21.500   1.5186   0.16666   0.16253  -0.1098  0.0244  1.0000  -7.0804   0.0000   0.0000   0.0000   0.2794
  22.000   1.5125   0.17517   0.17119  -0.1145  0.0228  1.0000  -7.2126   0.0000   0.0000   0.0000   0.2815
  22.500   1.5082   0.18325   0.17936  -0.1193  0.0214  1.0000  -7.3497   0.0000   0.0000   0.0000   0.2834
  23.000   1.5035   0.19101   0.18730  -0.1239  0.0199  1.0000  -7.4521   0.0000   0.0000   0.0000   0.2852
  23.500   1.4987   0.19997   0.19651  -0.1299  0.0192  1.0000  -7.5549   0.0000   0.0000   0.0000   0.2881
  24.000   1.4906   0.20992   0.20671  -0.1369  0.0185  1.0000  -7.5994   0.0000   0.0000   0.0000   0.2918
  24.500   1.4791   0.22109   0.21814  -0.1451  0.0179  1.0000  -7.5758   0.0000   0.0000   0.0000   0.2967
  25.000   1.4632   0.23404   0.23135  -0.1548  0.0173  1.0000  -7.4544   0.0000   0.0000   0.0000   0.3031
  28.500   1.3841   0.36601   0.36379  -0.2452  0.0165  1.0000  -2.7066   0.0000   0.0000   0.0000   0.3708
  29.000   1.3966   0.37047   0.36828  -0.2497  0.0155  1.0000  -2.8244   0.0000   0.0000   0.0000   0.3706
  29.500   1.4092   0.37406   0.37190  -0.2530  0.0149  1.0000  -3.0192   0.0000   0.0000   0.0000   0.3693
  30.000   1.4204   0.38188   0.37972  -0.2571  0.0144  1.0000  -3.0365   0.0000   0.0000   0.0000   0.3689


