xflr5 v6.59

 Calculated polar for: revR_55_revT

 1 1 Reynolds number fixed          Mach number fixed         

 xtrf =   1.000 (top)        1.000 (bottom)
 Mach =   0.000     Re =     0.425 e 6     Ncrit =   9.000

  alpha     CL        CD       CDp       Cm    Top Xtr Bot Xtr   Cpmin    Chinge    XCp    
 ------- -------- --------- --------- -------- ------- ------- -------- --------- ---------
  -5.000  -0.0452   0.01247   0.00594  -0.1128  0.8161  0.0469  -2.4086   0.0000   0.0000   0.0000  -2.3074
  -4.500   0.0089   0.01129   0.00465  -0.1127  0.8064  0.0633  -2.0936   0.0000   0.0000   0.0000  13.1442
  -4.000   0.0644   0.01067   0.00402  -0.1127  0.7966  0.0924  -1.7717   0.0000   0.0000   0.0000   2.0334
  -3.500   0.1199   0.01011   0.00364  -0.1128  0.7867  0.1444  -1.5196   0.0000   0.0000   0.0000   1.2063
  -3.000   0.1761   0.00973   0.00339  -0.1131  0.7770  0.2119  -1.2757   0.0000   0.0000   0.0000   0.9003
  -2.500   0.2316   0.00929   0.00321  -0.1132  0.7672  0.2904  -1.0428   0.0000   0.0000   0.0000   0.7437
  -2.000   0.2874   0.00886   0.00302  -0.1133  0.7563  0.3908  -0.8281   0.0000   0.0000   0.0000   0.6469
  -1.500   0.3430   0.00851   0.00299  -0.1133  0.7466  0.5077  -0.6604   0.0000   0.0000   0.0000   0.5818
  -1.000   0.3978   0.00818   0.00296  -0.1130  0.7354  0.6234  -0.7020   0.0000   0.0000   0.0000   0.5343
  -0.500   0.4518   0.00805   0.00304  -0.1122  0.7237  0.7239  -0.7435   0.0000   0.0000   0.0000   0.4977
   0.000   0.5056   0.00798   0.00305  -0.1113  0.7110  0.7815  -0.7880   0.0000   0.0000   0.0000   0.4688
   0.500   0.5587   0.00799   0.00312  -0.1103  0.6993  0.8292  -0.8357   0.0000   0.0000   0.0000   0.4454
   1.000   0.6100   0.00795   0.00309  -0.1088  0.6847  0.8717  -0.8842   0.0000   0.0000   0.0000   0.4258
   1.500   0.6578   0.00789   0.00311  -0.1066  0.6699  0.9164  -0.9371   0.0000   0.0000   0.0000   0.4088
   2.000   0.7168   0.00783   0.00301  -0.1068  0.6542  0.9788  -0.9995   0.0000   0.0000   0.0000   0.3952
   2.500   0.7778   0.00793   0.00301  -0.1081  0.6351  1.0000  -1.0673   0.0000   0.0000   0.0000   0.3847
   3.000   0.8344   0.00811   0.00313  -0.1085  0.6154  1.0000  -1.1363   0.0000   0.0000   0.0000   0.3751
   3.500   0.8898   0.00834   0.00328  -0.1085  0.5935  1.0000  -1.2117   0.0000   0.0000   0.0000   0.3665
   4.000   0.9442   0.00862   0.00348  -0.1084  0.5699  1.0000  -1.2944   0.0000   0.0000   0.0000   0.3588
   4.500   0.9974   0.00897   0.00373  -0.1080  0.5436  1.0000  -1.3847   0.0000   0.0000   0.0000   0.3517
   5.000   1.0495   0.00940   0.00405  -0.1075  0.5156  1.0000  -1.4970   0.0000   0.0000   0.0000   0.3452
   5.500   1.1007   0.00988   0.00445  -0.1068  0.4867  1.0000  -1.6134   0.0000   0.0000   0.0000   0.3392
   6.000   1.1505   0.01041   0.00491  -0.1060  0.4526  1.0000  -1.7682   0.0000   0.0000   0.0000   0.3337
   6.500   1.1988   0.01106   0.00545  -0.1049  0.4208  1.0000  -1.9328   0.0000   0.0000   0.0000   0.3284
   7.000   1.2458   0.01176   0.00607  -0.1037  0.3863  1.0000  -2.1598   0.0000   0.0000   0.0000   0.3235
   7.500   1.2897   0.01262   0.00679  -0.1021  0.3486  1.0000  -2.4633   0.0000   0.0000   0.0000   0.3187
   8.000   1.3330   0.01349   0.00761  -0.1004  0.3163  1.0000  -2.7882   0.0000   0.0000   0.0000   0.3141
   8.500   1.3708   0.01461   0.00857  -0.0980  0.2760  1.0000  -3.1078   0.0000   0.0000   0.0000   0.3095
   9.000   1.4056   0.01576   0.00961  -0.0950  0.2397  1.0000  -3.4278   0.0000   0.0000   0.0000   0.3050
   9.500   1.4328   0.01728   0.01095  -0.0912  0.2029  1.0000  -3.7297   0.0000   0.0000   0.0000   0.3002
  10.000   1.4575   0.01900   0.01253  -0.0874  0.1655  1.0000  -4.0295   0.0000   0.0000   0.0000   0.2957
  10.500   1.4779   0.02111   0.01454  -0.0835  0.1336  1.0000  -4.3180   0.0000   0.0000   0.0000   0.2915
  11.000   1.4974   0.02344   0.01680  -0.0800  0.1069  1.0000  -4.6074   0.0000   0.0000   0.0000   0.2875
  11.500   1.5141   0.02612   0.01944  -0.0766  0.0856  1.0000  -4.8887   0.0000   0.0000   0.0000   0.2838
  12.000   1.5285   0.02915   0.02247  -0.0735  0.0687  1.0000  -5.1612   0.0000   0.0000   0.0000   0.2804
  12.500   1.5373   0.03279   0.02610  -0.0704  0.0540  1.0000  -5.4183   0.0000   0.0000   0.0000   0.2771
  13.000   1.5469   0.03652   0.02988  -0.0677  0.0448  1.0000  -5.6828   0.0000   0.0000   0.0000   0.2741
  13.500   1.5488   0.04116   0.03470  -0.0651  0.0369  1.0000  -5.8978   0.0000   0.0000   0.0000   0.2714
  14.000   1.5525   0.04583   0.03947  -0.0631  0.0314  1.0000  -6.1265   0.0000   0.0000   0.0000   0.2690
  14.500   1.5318   0.05355   0.04738  -0.0610  0.0258  1.0000  -6.1895   0.0000   0.0000   0.0000   0.2671
  15.000   1.5365   0.05883   0.05287  -0.0603  0.0240  1.0000  -6.4110   0.0000   0.0000   0.0000   0.2654


