xflr5 v6.59

 Calculated polar for: revR_45_revT

 1 1 Reynolds number fixed          Mach number fixed         

 xtrf =   1.000 (top)        1.000 (bottom)
 Mach =   0.000     Re =     0.080 e 6     Ncrit =   9.000

  alpha     CL        CD       CDp       Cm    Top Xtr Bot Xtr   Cpmin    Chinge    XCp    
 ------- -------- --------- --------- -------- ------- ------- -------- --------- ---------
  -5.000  -0.3712   0.03806   0.03072  -0.0664  0.9794  0.1017  -2.6684   0.0000   0.0000   0.0000   0.0634
  -4.500  -0.2870   0.03331   0.02494  -0.0737  0.9701  0.1118  -2.4612   0.0000   0.0000   0.0000  -0.0161
  -4.000  -0.2164   0.03016   0.02130  -0.0778  0.9588  0.1298  -2.2213   0.0000   0.0000   0.0000  -0.1205
  -3.500  -0.1324   0.02793   0.01878  -0.0836  0.9478  0.1690  -1.9334   0.0000   0.0000   0.0000  -0.3977
  -3.000  -0.0667   0.02655   0.01773  -0.0865  0.9342  0.2470  -1.6527   0.0000   0.0000   0.0000  -1.0750
  -2.500   0.0157   0.02543   0.01745  -0.0922  0.9228  0.4280  -1.3641   0.0000   0.0000   0.0000   6.2286
  -2.000   0.0634   0.02505   0.01801  -0.0903  0.9064  0.6362  -1.1644   0.0000   0.0000   0.0000   1.6952
  -1.500   0.0999   0.02549   0.01884  -0.0838  0.8915  0.8175  -0.9833   0.0000   0.0000   0.0000   1.1000
  -1.000   0.1620   0.02541   0.01866  -0.0828  0.8753  1.0000  -0.7712   0.0000   0.0000   0.0000   0.7657
  -0.500   0.2249   0.02611   0.01889  -0.0867  0.8558  1.0000  -0.5774   0.0000   0.0000   0.0000   0.6373
   0.000   0.2891   0.02698   0.01940  -0.0898  0.8380  1.0000  -0.6029   0.0000   0.0000   0.0000   0.5608
   0.500   0.3822   0.02719   0.01930  -0.0961  0.8255  1.0000  -0.6710   0.0000   0.0000   0.0000   0.5003
   1.000   0.4336   0.02801   0.01993  -0.0962  0.8044  1.0000  -0.7143   0.0000   0.0000   0.0000   0.4700
   1.500   0.4880   0.02880   0.02059  -0.0965  0.7835  1.0000  -0.7644   0.0000   0.0000   0.0000   0.4452
   2.000   0.5439   0.02955   0.02124  -0.0968  0.7636  1.0000  -0.8197   0.0000   0.0000   0.0000   0.4248
   2.500   0.6074   0.02980   0.02144  -0.0974  0.7460  1.0000  -0.8842   0.0000   0.0000   0.0000   0.4066
   3.000   0.6828   0.02904   0.02064  -0.0984  0.7314  1.0000  -0.9664   0.0000   0.0000   0.0000   0.3899
   3.500   0.7349   0.02942   0.02104  -0.0973  0.7097  1.0000  -1.0347   0.0000   0.0000   0.0000   0.3777
   4.000   0.7888   0.02959   0.02126  -0.0962  0.6881  1.0000  -1.1104   0.0000   0.0000   0.0000   0.3666
   4.500   0.8452   0.02947   0.02122  -0.0950  0.6669  1.0000  -1.1992   0.0000   0.0000   0.0000   0.3565
   5.000   0.9047   0.02899   0.02083  -0.0939  0.6458  1.0000  -1.3079   0.0000   0.0000   0.0000   0.3474
   5.500   0.9663   0.02829   0.02023  -0.0929  0.6242  1.0000  -1.4346   0.0000   0.0000   0.0000   0.3391
   6.000   1.0272   0.02755   0.01960  -0.0917  0.6002  1.0000  -1.5922   0.0000   0.0000   0.0000   0.3317
   6.500   1.0874   0.02685   0.01899  -0.0905  0.5732  1.0000  -1.7730   0.0000   0.0000   0.0000   0.3250
   7.000   1.1489   0.02616   0.01833  -0.0894  0.5438  1.0000  -2.0449   0.0000   0.0000   0.0000   0.3189
   7.500   1.2017   0.02617   0.01839  -0.0877  0.5097  1.0000  -2.3731   0.0000   0.0000   0.0000   0.3133
   8.000   1.2512   0.02636   0.01856  -0.0855  0.4717  1.0000  -2.7058   0.0000   0.0000   0.0000   0.3080
   8.500   1.2919   0.02718   0.01943  -0.0826  0.4317  1.0000  -3.0187   0.0000   0.0000   0.0000   0.3029
   9.000   1.3307   0.02806   0.02028  -0.0795  0.3896  1.0000  -3.3399   0.0000   0.0000   0.0000   0.2978
   9.500   1.3626   0.02929   0.02139  -0.0756  0.3457  1.0000  -3.6542   0.0000   0.0000   0.0000   0.2928
  10.000   1.3849   0.03102   0.02304  -0.0708  0.3020  1.0000  -3.9348   0.0000   0.0000   0.0000   0.2877
  10.500   1.3919   0.03329   0.02533  -0.0645  0.2598  1.0000  -4.1536   0.0000   0.0000   0.0000   0.2820
  11.000   1.3934   0.03622   0.02816  -0.0582  0.2207  1.0000  -4.3455   0.0000   0.0000   0.0000   0.2767
  11.500   1.3946   0.03971   0.03147  -0.0529  0.1852  1.0000  -4.5315   0.0000   0.0000   0.0000   0.2720
  12.000   1.3930   0.04406   0.03592  -0.0483  0.1558  1.0000  -4.6791   0.0000   0.0000   0.0000   0.2678
  12.500   1.3957   0.04882   0.04075  -0.0445  0.1315  1.0000  -4.8251   0.0000   0.0000   0.0000   0.2641
  13.000   1.3970   0.05395   0.04594  -0.0413  0.1121  1.0000  -4.9597   0.0000   0.0000   0.0000   0.2609
  13.500   1.4102   0.05957   0.05153  -0.0387  0.0954  1.0000  -5.1077   0.0000   0.0000   0.0000   0.2579
  14.000   1.3917   0.06622   0.05878  -0.0363  0.0877  1.0000  -5.1267   0.0000   0.0000   0.0000   0.2557
  14.500   1.3902   0.07235   0.06503  -0.0348  0.0790  1.0000  -5.2284   0.0000   0.0000   0.0000   0.2536
  15.000   1.3686   0.08274   0.07589  -0.0340  0.0749  1.0000  -5.1779   0.0000   0.0000   0.0000   0.2526


