xflr5 v6.59

 Calculated polar for: revR_70_revT

 1 1 Reynolds number fixed          Mach number fixed         

 xtrf =   1.000 (top)        1.000 (bottom)
 Mach =   0.000     Re =     0.395 e 6     Ncrit =   9.000

  alpha     CL        CD       CDp       Cm    Top Xtr Bot Xtr   Cpmin    Chinge    XCp    
 ------- -------- --------- --------- -------- ------- ------- -------- --------- ---------
  -5.000   0.0168   0.01275   0.00615  -0.1270  0.8058  0.0488  -2.3348   0.0000   0.0000   0.0000   8.0137
  -4.500   0.0726   0.01189   0.00513  -0.1272  0.7977  0.0611  -2.0467   0.0000   0.0000   0.0000   2.0405
  -4.000   0.1280   0.01124   0.00454  -0.1273  0.7885  0.0866  -1.7881   0.0000   0.0000   0.0000   1.2628
  -3.500   0.1844   0.01069   0.00407  -0.1275  0.7796  0.1318  -1.5332   0.0000   0.0000   0.0000   0.9523
  -3.000   0.2410   0.01037   0.00387  -0.1278  0.7713  0.1910  -1.2879   0.0000   0.0000   0.0000   0.7874
  -2.500   0.2971   0.00994   0.00368  -0.1281  0.7618  0.2675  -1.0559   0.0000   0.0000   0.0000   0.6855
  -2.000   0.3540   0.00959   0.00349  -0.1284  0.7525  0.3508  -0.8324   0.0000   0.0000   0.0000   0.6152
  -1.500   0.4097   0.00923   0.00346  -0.1285  0.7423  0.4618  -0.7223   0.0000   0.0000   0.0000   0.5650
  -1.000   0.4655   0.00890   0.00343  -0.1285  0.7328  0.5774  -0.7637   0.0000   0.0000   0.0000   0.5262
  -0.500   0.5201   0.00873   0.00353  -0.1279  0.7226  0.6956  -0.8055   0.0000   0.0000   0.0000   0.4953
   0.000   0.5735   0.00862   0.00357  -0.1270  0.7107  0.7693  -0.8491   0.0000   0.0000   0.0000   0.4700
   0.500   0.6271   0.00866   0.00360  -0.1261  0.6999  0.8215  -0.8980   0.0000   0.0000   0.0000   0.4489
   1.000   0.6768   0.00856   0.00363  -0.1243  0.6872  0.8713  -0.9467   0.0000   0.0000   0.0000   0.4308
   2.000   0.7852   0.00837   0.00344  -0.1228  0.6590  1.0000  -1.0618   0.0000   0.0000   0.0000   0.4023
   2.500   0.8435   0.00852   0.00351  -0.1235  0.6440  1.0000  -1.1258   0.0000   0.0000   0.0000   0.3918
   3.000   0.9000   0.00869   0.00356  -0.1237  0.6254  1.0000  -1.1900   0.0000   0.0000   0.0000   0.3823
   3.500   0.9557   0.00890   0.00369  -0.1238  0.6069  1.0000  -1.2652   0.0000   0.0000   0.0000   0.3738
   4.000   1.0105   0.00915   0.00390  -0.1238  0.5869  1.0000  -1.3414   0.0000   0.0000   0.0000   0.3661
   4.500   1.0637   0.00947   0.00414  -0.1234  0.5629  1.0000  -1.4290   0.0000   0.0000   0.0000   0.3590
   5.000   1.1161   0.00984   0.00446  -0.1229  0.5390  1.0000  -1.5231   0.0000   0.0000   0.0000   0.3525
   5.500   1.1668   0.01031   0.00483  -0.1222  0.5121  1.0000  -1.6373   0.0000   0.0000   0.0000   0.3464
   6.000   1.2157   0.01087   0.00529  -0.1212  0.4833  1.0000  -1.7582   0.0000   0.0000   0.0000   0.3407
   6.500   1.2640   0.01145   0.00582  -0.1201  0.4541  1.0000  -1.9018   0.0000   0.0000   0.0000   0.3354
   7.000   1.3096   0.01214   0.00643  -0.1186  0.4208  1.0000  -2.0629   0.0000   0.0000   0.0000   0.3303
   7.500   1.3534   0.01292   0.00716  -0.1169  0.3914  1.0000  -2.2492   0.0000   0.0000   0.0000   0.3253
   8.000   1.3929   0.01387   0.00799  -0.1146  0.3570  1.0000  -2.4662   0.0000   0.0000   0.0000   0.3205
   8.500   1.4298   0.01486   0.00891  -0.1119  0.3242  1.0000  -2.7362   0.0000   0.0000   0.0000   0.3157
   9.000   1.4610   0.01604   0.01001  -0.1083  0.2945  1.0000  -3.0388   0.0000   0.0000   0.0000   0.3108
   9.500   1.4872   0.01751   0.01140  -0.1044  0.2616  1.0000  -3.3338   0.0000   0.0000   0.0000   0.3060
  10.000   1.5123   0.01917   0.01300  -0.1007  0.2307  1.0000  -3.6330   0.0000   0.0000   0.0000   0.3016
  10.500   1.5327   0.02126   0.01500  -0.0968  0.2006  1.0000  -3.9215   0.0000   0.0000   0.0000   0.2973
  11.000   1.5495   0.02378   0.01742  -0.0931  0.1708  1.0000  -4.2016   0.0000   0.0000   0.0000   0.2933
  11.500   1.5659   0.02649   0.02009  -0.0897  0.1440  1.0000  -4.4856   0.0000   0.0000   0.0000   0.2896
  12.000   1.5775   0.02970   0.02326  -0.0862  0.1186  1.0000  -4.7537   0.0000   0.0000   0.0000   0.2861
  12.500   1.5866   0.03328   0.02681  -0.0830  0.0978  1.0000  -5.0142   0.0000   0.0000   0.0000   0.2828
  13.000   1.5925   0.03726   0.03080  -0.0800  0.0809  1.0000  -5.2619   0.0000   0.0000   0.0000   0.2797
  13.500   1.5923   0.04203   0.03556  -0.0771  0.0662  1.0000  -5.4856   0.0000   0.0000   0.0000   0.2768
  14.000   1.5985   0.04641   0.04004  -0.0750  0.0566  1.0000  -5.7468   0.0000   0.0000   0.0000   0.2742
  14.500   1.5960   0.05201   0.04574  -0.0730  0.0473  1.0000  -5.9574   0.0000   0.0000   0.0000   0.2720
  15.000   1.5932   0.05790   0.05172  -0.0716  0.0405  1.0000  -6.1682   0.0000   0.0000   0.0000   0.2701


