xflr5 v6.59

 Calculated polar for: revR_80_revT

 1 1 Reynolds number fixed          Mach number fixed         

 xtrf =   1.000 (top)        1.000 (bottom)
 Mach =   0.000     Re =     0.200 e 6     Ncrit =   9.000

  alpha     CL        CD       CDp       Cm    Top Xtr Bot Xtr   Cpmin    Chinge    XCp    
 ------- -------- --------- --------- -------- ------- ------- -------- --------- ---------
  -5.000   0.0553   0.01893   0.01165  -0.1401  0.8482  0.0685  -2.2130   0.0000   0.0000   0.0000   2.8473
  -4.500   0.1057   0.01822   0.01077  -0.1393  0.8375  0.0790  -1.9829   0.0000   0.0000   0.0000   1.5974
  -4.000   0.1600   0.01666   0.00920  -0.1392  0.8284  0.1057  -1.7750   0.0000   0.0000   0.0000   1.1375
  -3.500   0.2182   0.01588   0.00853  -0.1398  0.8211  0.1577  -1.5352   0.0000   0.0000   0.0000   0.9014
  -3.000   0.2694   0.01541   0.00830  -0.1395  0.8094  0.2295  -1.3114   0.0000   0.0000   0.0000   0.7751
  -2.500   0.3271   0.01482   0.00795  -0.1398  0.8007  0.3209  -1.0837   0.0000   0.0000   0.0000   0.6822
  -2.000   0.3820   0.01456   0.00799  -0.1398  0.7918  0.4258  -0.8713   0.0000   0.0000   0.0000   0.6192
  -1.500   0.4347   0.01420   0.00802  -0.1392  0.7805  0.5503  -0.7437   0.0000   0.0000   0.0000   0.5719
  -1.000   0.4898   0.01382   0.00793  -0.1379  0.7722  0.6832  -0.7873   0.0000   0.0000   0.0000   0.5322
  -0.500   0.5343   0.01393   0.00826  -0.1351  0.7596  0.7790  -0.8235   0.0000   0.0000   0.0000   0.5026
   0.000   0.5798   0.01367   0.00804  -0.1315  0.7500  0.8567  -0.8623   0.0000   0.0000   0.0000   0.4757
   0.500   0.6193   0.01360   0.00802  -0.1272  0.7384  0.9349  -0.8989   0.0000   0.0000   0.0000   0.4536
   1.000   0.6900   0.01331   0.00756  -0.1301  0.7265  1.0000  -0.9586   0.0000   0.0000   0.0000   0.4359
   1.500   0.7495   0.01349   0.00759  -0.1311  0.7145  1.0000  -1.0151   0.0000   0.0000   0.0000   0.4217
   2.000   0.8092   0.01351   0.00748  -0.1319  0.7021  1.0000  -1.0741   0.0000   0.0000   0.0000   0.4091
   2.500   0.8660   0.01360   0.00749  -0.1321  0.6876  1.0000  -1.1404   0.0000   0.0000   0.0000   0.3980
   3.000   0.9258   0.01354   0.00728  -0.1326  0.6741  1.0000  -1.2103   0.0000   0.0000   0.0000   0.3881
   3.500   0.9795   0.01370   0.00744  -0.1323  0.6574  1.0000  -1.2755   0.0000   0.0000   0.0000   0.3792
   4.000   1.0362   0.01375   0.00742  -0.1323  0.6416  1.0000  -1.3535   0.0000   0.0000   0.0000   0.3712
   4.500   1.0926   0.01376   0.00733  -0.1321  0.6234  1.0000  -1.4371   0.0000   0.0000   0.0000   0.3638
   5.000   1.1439   0.01400   0.00761  -0.1313  0.6031  1.0000  -1.5233   0.0000   0.0000   0.0000   0.3570
   5.500   1.1955   0.01429   0.00790  -0.1306  0.5817  1.0000  -1.6236   0.0000   0.0000   0.0000   0.3508
   6.000   1.2457   0.01461   0.00819  -0.1295  0.5571  1.0000  -1.7361   0.0000   0.0000   0.0000   0.3448
   6.500   1.2944   0.01507   0.00862  -0.1283  0.5320  1.0000  -1.8648   0.0000   0.0000   0.0000   0.3393
   7.000   1.3406   0.01564   0.00913  -0.1267  0.5043  1.0000  -2.0038   0.0000   0.0000   0.0000   0.3339
   7.500   1.3843   0.01636   0.00977  -0.1248  0.4754  1.0000  -2.1659   0.0000   0.0000   0.0000   0.3288
   8.000   1.4234   0.01720   0.01062  -0.1222  0.4453  1.0000  -2.3387   0.0000   0.0000   0.0000   0.3237
   8.500   1.4583   0.01817   0.01160  -0.1191  0.4141  1.0000  -2.5485   0.0000   0.0000   0.0000   0.3187
   9.000   1.4875   0.01932   0.01273  -0.1151  0.3840  1.0000  -2.8028   0.0000   0.0000   0.0000   0.3136
   9.500   1.5103   0.02074   0.01409  -0.1103  0.3546  1.0000  -3.0675   0.0000   0.0000   0.0000   0.3085
  10.000   1.5284   0.02251   0.01580  -0.1054  0.3252  1.0000  -3.3231   0.0000   0.0000   0.0000   0.3035
  10.500   1.5448   0.02455   0.01788  -0.1008  0.2967  1.0000  -3.5773   0.0000   0.0000   0.0000   0.2990
  11.000   1.5589   0.02698   0.02038  -0.0966  0.2691  1.0000  -3.8278   0.0000   0.0000   0.0000   0.2947
  11.500   1.5679   0.02997   0.02336  -0.0924  0.2404  1.0000  -4.0635   0.0000   0.0000   0.0000   0.2908
  12.000   1.5733   0.03349   0.02685  -0.0885  0.2125  1.0000  -4.2897   0.0000   0.0000   0.0000   0.2871
  12.500   1.5756   0.03751   0.03085  -0.0849  0.1868  1.0000  -4.5100   0.0000   0.0000   0.0000   0.2837
  13.000   1.5750   0.04203   0.03537  -0.0816  0.1628  1.0000  -4.7184   0.0000   0.0000   0.0000   0.2806
  13.500   1.5724   0.04705   0.04041  -0.0788  0.1411  1.0000  -4.9169   0.0000   0.0000   0.0000   0.2779
  14.000   1.5701   0.05241   0.04584  -0.0765  0.1221  1.0000  -5.1140   0.0000   0.0000   0.0000   0.2755
  14.500   1.5658   0.05826   0.05182  -0.0747  0.1057  1.0000  -5.2989   0.0000   0.0000   0.0000   0.2733
  15.000   1.5559   0.06505   0.05866  -0.0733  0.0919  1.0000  -5.4524   0.0000   0.0000   0.0000   0.2716


