xflr5 v6.59

 Calculated polar for: revR_05_revT

 1 1 Reynolds number fixed          Mach number fixed         

 xtrf =   1.000 (top)        1.000 (bottom)
 Mach =   0.000     Re =     0.130 e 6     Ncrit =   9.000

  alpha     CL        CD       CDp       Cm    Top Xtr Bot Xtr   Cpmin    Chinge    XCp    
 ------- -------- --------- --------- -------- ------- ------- -------- --------- ---------
  -5.000  -0.4213   0.02275   0.01463  -0.0406  0.9704  0.0792  -2.9346   0.0000   0.0000   0.0000   0.1474
  -4.500  -0.3512   0.02098   0.01264  -0.0435  0.9586  0.0963  -2.5991   0.0000   0.0000   0.0000   0.1196
  -4.000  -0.2826   0.01896   0.01074  -0.0466  0.9466  0.1385  -2.2468   0.0000   0.0000   0.0000   0.0782
  -3.500  -0.2206   0.01740   0.00971  -0.0486  0.9326  0.2418  -1.8928   0.0000   0.0000   0.0000   0.0221
  -3.000  -0.1502   0.01581   0.00916  -0.0521  0.9209  0.4522  -1.5095   0.0000   0.0000   0.0000  -0.1055
  -2.500  -0.1004   0.01521   0.00941  -0.0499  0.9050  0.6738  -1.2158   0.0000   0.0000   0.0000  -0.2577
  -2.000  -0.0236   0.01512   0.00943  -0.0515  0.8957  0.7969  -0.9597   0.0000   0.0000   0.0000  -1.9678
  -1.500   0.0254   0.01525   0.00955  -0.0479  0.8779  0.8683  -0.7670   0.0000   0.0000   0.0000   2.1589
  -1.000   0.1207   0.01514   0.00926  -0.0527  0.8700  0.9197  -0.5205   0.0000   0.0000   0.0000   0.6897
  -0.500   0.2359   0.01515   0.00909  -0.0631  0.8557  0.9512  -0.5429   0.0000   0.0000   0.0000   0.5175
   0.000   0.3651   0.01460   0.00834  -0.0763  0.8434  0.9757  -0.6350   0.0000   0.0000   0.0000   0.4581
   0.500   0.4727   0.01399   0.00760  -0.0865  0.8238  0.9997  -0.7200   0.0000   0.0000   0.0000   0.4314
   1.000   0.5065   0.01382   0.00733  -0.0827  0.7990  1.0000  -0.7633   0.0000   0.0000   0.0000   0.4112
   1.500   0.5384   0.01372   0.00713  -0.0783  0.7735  1.0000  -0.8121   0.0000   0.0000   0.0000   0.3929
   2.000   0.5695   0.01374   0.00709  -0.0737  0.7479  1.0000  -0.8609   0.0000   0.0000   0.0000   0.3764
   2.500   0.6023   0.01377   0.00707  -0.0691  0.7206  1.0000  -0.9199   0.0000   0.0000   0.0000   0.3613
   3.000   0.6406   0.01385   0.00708  -0.0654  0.6928  1.0000  -0.9901   0.0000   0.0000   0.0000   0.3482
   3.500   0.6837   0.01396   0.00713  -0.0625  0.6644  1.0000  -1.0843   0.0000   0.0000   0.0000   0.3371
   4.000   0.7304   0.01404   0.00711  -0.0600  0.6337  1.0000  -1.1944   0.0000   0.0000   0.0000   0.3274
   4.500   0.7768   0.01430   0.00733  -0.0578  0.6005  1.0000  -1.3533   0.0000   0.0000   0.0000   0.3191
   5.000   0.8234   0.01459   0.00754  -0.0555  0.5637  1.0000  -1.5956   0.0000   0.0000   0.0000   0.3117
   5.500   0.8694   0.01504   0.00796  -0.0533  0.5250  1.0000  -1.9136   0.0000   0.0000   0.0000   0.3051
   6.000   0.9140   0.01556   0.00835  -0.0508  0.4825  1.0000  -2.2442   0.0000   0.0000   0.0000   0.2989
   6.500   0.9569   0.01622   0.00891  -0.0483  0.4395  1.0000  -2.5825   0.0000   0.0000   0.0000   0.2931
   7.000   0.9961   0.01696   0.00960  -0.0453  0.3926  1.0000  -2.9202   0.0000   0.0000   0.0000   0.2875
   7.500   1.0318   0.01788   0.01046  -0.0418  0.3430  1.0000  -3.2560   0.0000   0.0000   0.0000   0.2820
   8.000   1.0635   0.01895   0.01148  -0.0379  0.2905  1.0000  -3.5823   0.0000   0.0000   0.0000   0.2765
   8.500   1.0883   0.02034   0.01275  -0.0332  0.2325  1.0000  -3.8844   0.0000   0.0000   0.0000   0.2707
   9.000   1.1021   0.02243   0.01449  -0.0272  0.1761  1.0000  -4.1347   0.0000   0.0000   0.0000   0.2643
   9.500   1.1071   0.02487   0.01673  -0.0202  0.1319  1.0000  -4.3349   0.0000   0.0000   0.0000   0.2571
  10.000   1.1167   0.02742   0.01927  -0.0144  0.1016  1.0000  -4.5357   0.0000   0.0000   0.0000   0.2511
  10.500   1.1249   0.03027   0.02213  -0.0095  0.0796  1.0000  -4.7357   0.0000   0.0000   0.0000   0.2459
  11.000   1.1336   0.03409   0.02596  -0.0052  0.0635  1.0000  -4.8866   0.0000   0.0000   0.0000   0.2414
  11.500   1.1424   0.03749   0.02950  -0.0018  0.0523  1.0000  -5.0418   0.0000   0.0000   0.0000   0.2375
  12.000   1.1605   0.04242   0.03466   0.0009  0.0448  1.0000  -5.1578   0.0000   0.0000   0.0000   0.2345
  12.500   1.1749   0.04713   0.03976   0.0032  0.0414  1.0000  -5.2722   0.0000   0.0000   0.0000   0.2318
  13.000   1.1789   0.05267   0.04576   0.0053  0.0395  1.0000  -5.3500   0.0000   0.0000   0.0000   0.2292
  13.500   1.1703   0.05933   0.05286   0.0066  0.0385  1.0000  -5.3724   0.0000   0.0000   0.0000   0.2273
  14.000   1.1488   0.06759   0.06160   0.0064  0.0382  1.0000  -5.3234   0.0000   0.0000   0.0000   0.2265
  14.500   1.1127   0.07833   0.07283   0.0035  0.0384  1.0000  -5.1812   0.0000   0.0000   0.0000   0.2280
  15.000   1.0586   0.09334   0.08833  -0.0037  0.0392  1.0000  -4.9007   0.0000   0.0000   0.0000   0.2338


