xflr5 v6.59

 Calculated polar for: revR_30_revT

 1 1 Reynolds number fixed          Mach number fixed         

 xtrf =   1.000 (top)        1.000 (bottom)
 Mach =   0.000     Re =     0.390 e 6     Ncrit =   9.000

  alpha     CL        CD       CDp       Cm    Top Xtr Bot Xtr   Cpmin    Chinge    XCp    
 ------- -------- --------- --------- -------- ------- ------- -------- --------- ---------
  -5.000  -0.1481   0.01210   0.00552  -0.0898  0.8547  0.0555  -2.4982   0.0000   0.0000   0.0000  -0.3733
  -4.500  -0.0949   0.01121   0.00454  -0.0893  0.8420  0.0753  -2.1582   0.0000   0.0000   0.0000  -0.7139
  -4.000  -0.0412   0.01049   0.00391  -0.0890  0.8295  0.1169  -1.8158   0.0000   0.0000   0.0000  -1.9573
  -3.500   0.0131   0.00996   0.00356  -0.0889  0.8176  0.1793  -1.4955   0.0000   0.0000   0.0000   7.1333
  -3.000   0.0675   0.00944   0.00327  -0.0888  0.8059  0.2660  -1.2378   0.0000   0.0000   0.0000   1.5834
  -2.500   0.1215   0.00893   0.00306  -0.0886  0.7928  0.3687  -1.0217   0.0000   0.0000   0.0000   0.9870
  -2.000   0.1755   0.00844   0.00290  -0.0883  0.7808  0.4938  -0.8145   0.0000   0.0000   0.0000   0.7570
  -1.500   0.2279   0.00801   0.00293  -0.0874  0.7680  0.6380  -0.6235   0.0000   0.0000   0.0000   0.6354
  -1.000   0.2815   0.00789   0.00292  -0.0864  0.7548  0.7234  -0.5969   0.0000   0.0000   0.0000   0.5574
  -0.500   0.3344   0.00782   0.00295  -0.0853  0.7402  0.7804  -0.6393   0.0000   0.0000   0.0000   0.5045
   0.000   0.3877   0.00784   0.00297  -0.0842  0.7269  0.8235  -0.6842   0.0000   0.0000   0.0000   0.4659
   0.500   0.4389   0.00779   0.00295  -0.0826  0.7107  0.8598  -0.7315   0.0000   0.0000   0.0000   0.4362
   1.000   0.4891   0.00778   0.00296  -0.0808  0.6940  0.8968  -0.7820   0.0000   0.0000   0.0000   0.4128
   1.500   0.5376   0.00774   0.00292  -0.0786  0.6766  0.9363  -0.8369   0.0000   0.0000   0.0000   0.3931
   2.000   0.6041   0.00773   0.00284  -0.0804  0.6565  0.9775  -0.9039   0.0000   0.0000   0.0000   0.3796
   2.500   0.6709   0.00782   0.00283  -0.0830  0.6335  1.0000  -0.9790   0.0000   0.0000   0.0000   0.3698
   3.000   0.7249   0.00802   0.00293  -0.0829  0.6100  1.0000  -1.0515   0.0000   0.0000   0.0000   0.3599
   3.500   0.7791   0.00825   0.00308  -0.0827  0.5830  1.0000  -1.1321   0.0000   0.0000   0.0000   0.3512
   4.000   0.8325   0.00855   0.00329  -0.0823  0.5533  1.0000  -1.2289   0.0000   0.0000   0.0000   0.3435
   4.500   0.8851   0.00894   0.00356  -0.0819  0.5224  1.0000  -1.3393   0.0000   0.0000   0.0000   0.3365
   5.000   0.9369   0.00939   0.00390  -0.0812  0.4894  1.0000  -1.4806   0.0000   0.0000   0.0000   0.3302
   5.500   0.9879   0.00989   0.00431  -0.0805  0.4528  1.0000  -1.6607   0.0000   0.0000   0.0000   0.3245
   6.000   1.0380   0.01047   0.00479  -0.0797  0.4176  1.0000  -1.9783   0.0000   0.0000   0.0000   0.3192
   6.500   1.0857   0.01121   0.00536  -0.0786  0.3731  1.0000  -2.3046   0.0000   0.0000   0.0000   0.3142
   7.500   1.1764   0.01302   0.00680  -0.0759  0.2738  1.0000  -3.0097   0.0000   0.0000   0.0000   0.3050
   8.000   1.2193   0.01410   0.00769  -0.0743  0.2291  1.0000  -3.3782   0.0000   0.0000   0.0000   0.3008
   9.000   1.2962   0.01672   0.00996  -0.0701  0.1430  1.0000  -4.1164   0.0000   0.0000   0.0000   0.2925
   9.500   1.3271   0.01831   0.01136  -0.0670  0.1043  1.0000  -4.4687   0.0000   0.0000   0.0000   0.2882
  10.000   1.3539   0.02005   0.01299  -0.0634  0.0769  1.0000  -4.8075   0.0000   0.0000   0.0000   0.2838
  10.500   1.3779   0.02198   0.01488  -0.0598  0.0573  1.0000  -5.1346   0.0000   0.0000   0.0000   0.2796
  11.000   1.3986   0.02425   0.01714  -0.0564  0.0432  1.0000  -5.4431   0.0000   0.0000   0.0000   0.2757
  11.500   1.4161   0.02692   0.01991  -0.0532  0.0320  1.0000  -5.7174   0.0000   0.0000   0.0000   0.2721
  12.000   1.4225   0.03072   0.02386  -0.0496  0.0240  1.0000  -5.8851   0.0000   0.0000   0.0000   0.2685
  12.500   1.4305   0.03463   0.02792  -0.0469  0.0208  1.0000  -6.0872   0.0000   0.0000   0.0000   0.2655
  13.000   1.4287   0.03972   0.03321  -0.0444  0.0189  1.0000  -6.2263   0.0000   0.0000   0.0000   0.2628
  13.500   1.4164   0.04619   0.03996  -0.0422  0.0177  1.0000  -6.2909   0.0000   0.0000   0.0000   0.2606
  14.000   1.3990   0.05351   0.04759  -0.0403  0.0169  1.0000  -6.3125   0.0000   0.0000   0.0000   0.2586
  14.500   1.4017   0.05910   0.05340  -0.0399  0.0166  1.0000  -6.4990   0.0000   0.0000   0.0000   0.2573
  15.000   1.4007   0.06537   0.05991  -0.0400  0.0163  1.0000  -6.6589   0.0000   0.0000   0.0000   0.2563


