xflr5 v6.59

 Calculated polar for: revR_80_revT

 1 1 Reynolds number fixed          Mach number fixed         

 xtrf =   1.000 (top)        1.000 (bottom)
 Mach =   0.000     Re =     0.245 e 6     Ncrit =   9.000

  alpha     CL        CD       CDp       Cm    Top Xtr Bot Xtr   Cpmin    Chinge    XCp    
 ------- -------- --------- --------- -------- ------- ------- -------- --------- ---------
  -5.000   0.0575   0.01727   0.01020  -0.1384  0.8309  0.0598  -2.2314   0.0000   0.0000   0.0000   2.7185
  -4.500   0.1127   0.01557   0.00837  -0.1385  0.8231  0.0743  -2.0005   0.0000   0.0000   0.0000   1.5066
  -4.000   0.1655   0.01473   0.00752  -0.1383  0.8138  0.0981  -1.7767   0.0000   0.0000   0.0000   1.1018
  -3.500   0.2212   0.01397   0.00686  -0.1385  0.8046  0.1461  -1.5394   0.0000   0.0000   0.0000   0.8865
  -3.000   0.2791   0.01344   0.00650  -0.1390  0.7965  0.2195  -1.2950   0.0000   0.0000   0.0000   0.7548
  -2.500   0.3324   0.01308   0.00640  -0.1389  0.7862  0.3005  -1.0761   0.0000   0.0000   0.0000   0.6725
  -2.000   0.3892   0.01264   0.00622  -0.1392  0.7775  0.3995  -0.8588   0.0000   0.0000   0.0000   0.6105
  -1.500   0.4452   0.01234   0.00618  -0.1392  0.7684  0.5137  -0.7544   0.0000   0.0000   0.0000   0.5641
  -1.000   0.4974   0.01202   0.00628  -0.1382  0.7571  0.6453  -0.7950   0.0000   0.0000   0.0000   0.5283
  -0.500   0.5513   0.01185   0.00624  -0.1369  0.7482  0.7471  -0.8380   0.0000   0.0000   0.0000   0.4979
   0.000   0.5978   0.01189   0.00644  -0.1344  0.7369  0.8235  -0.8762   0.0000   0.0000   0.0000   0.4735
   0.500   0.6435   0.01166   0.00623  -0.1312  0.7261  0.8846  -0.9175   0.0000   0.0000   0.0000   0.4519
   1.000   0.6961   0.01144   0.00603  -0.1297  0.7141  0.9785  -0.9666   0.0000   0.0000   0.0000   0.4336
   1.500   0.7596   0.01146   0.00590  -0.1315  0.7024  1.0000  -1.0259   0.0000   0.0000   0.0000   0.4198
   2.000   0.8183   0.01160   0.00592  -0.1323  0.6896  1.0000  -1.0846   0.0000   0.0000   0.0000   0.4077
   2.500   0.8770   0.01160   0.00579  -0.1328  0.6753  1.0000  -1.1527   0.0000   0.0000   0.0000   0.3968
   3.000   0.9327   0.01176   0.00591  -0.1329  0.6601  1.0000  -1.2190   0.0000   0.0000   0.0000   0.3873
   3.500   0.9905   0.01184   0.00586  -0.1332  0.6454  1.0000  -1.2882   0.0000   0.0000   0.0000   0.3786
   4.000   1.0444   0.01194   0.00594  -0.1328  0.6267  1.0000  -1.3644   0.0000   0.0000   0.0000   0.3707
   4.500   1.0975   0.01216   0.00615  -0.1324  0.6071  1.0000  -1.4447   0.0000   0.0000   0.0000   0.3635
   5.000   1.1507   0.01245   0.00641  -0.1320  0.5876  1.0000  -1.5336   0.0000   0.0000   0.0000   0.3569
   5.500   1.2021   0.01277   0.00669  -0.1312  0.5646  1.0000  -1.6342   0.0000   0.0000   0.0000   0.3506
   6.000   1.2517   0.01319   0.00707  -0.1302  0.5396  1.0000  -1.7472   0.0000   0.0000   0.0000   0.3448
   6.500   1.2995   0.01372   0.00756  -0.1289  0.5136  1.0000  -1.8757   0.0000   0.0000   0.0000   0.3393
   7.000   1.3445   0.01435   0.00814  -0.1272  0.4848  1.0000  -2.0139   0.0000   0.0000   0.0000   0.3339
   7.500   1.3869   0.01511   0.00883  -0.1251  0.4555  1.0000  -2.1755   0.0000   0.0000   0.0000   0.3288
   8.000   1.4252   0.01604   0.00967  -0.1225  0.4252  1.0000  -2.3486   0.0000   0.0000   0.0000   0.3237
   8.500   1.4599   0.01702   0.01066  -0.1193  0.3948  1.0000  -2.5599   0.0000   0.0000   0.0000   0.3188
   9.000   1.4882   0.01818   0.01182  -0.1152  0.3656  1.0000  -2.8202   0.0000   0.0000   0.0000   0.3136
   9.500   1.5112   0.01964   0.01324  -0.1107  0.3351  1.0000  -3.0866   0.0000   0.0000   0.0000   0.3086
  10.000   1.5301   0.02147   0.01501  -0.1061  0.3061  1.0000  -3.3459   0.0000   0.0000   0.0000   0.3039
  10.500   1.5475   0.02363   0.01713  -0.1018  0.2788  1.0000  -3.6049   0.0000   0.0000   0.0000   0.2994
  11.000   1.5620   0.02616   0.01969  -0.0978  0.2504  1.0000  -3.8588   0.0000   0.0000   0.0000   0.2953
  11.500   1.5743   0.02907   0.02260  -0.0941  0.2216  1.0000  -4.1089   0.0000   0.0000   0.0000   0.2915
  12.000   1.5833   0.03244   0.02596  -0.0905  0.1948  1.0000  -4.3571   0.0000   0.0000   0.0000   0.2880
  12.500   1.5881   0.03632   0.02983  -0.0870  0.1693  1.0000  -4.5909   0.0000   0.0000   0.0000   0.2846
  13.000   1.5898   0.04070   0.03420  -0.0839  0.1461  1.0000  -4.8121   0.0000   0.0000   0.0000   0.2815
  13.500   1.5899   0.04547   0.03900  -0.0811  0.1260  1.0000  -5.0263   0.0000   0.0000   0.0000   0.2787
  14.000   1.5878   0.05079   0.04440  -0.0787  0.1083  1.0000  -5.2294   0.0000   0.0000   0.0000   0.2763
  14.500   1.5804   0.05697   0.05060  -0.0768  0.0931  1.0000  -5.4045   0.0000   0.0000   0.0000   0.2742
  15.000   1.5737   0.06346   0.05716  -0.0755  0.0802  1.0000  -5.5806   0.0000   0.0000   0.0000   0.2725


