xflr5 v6.59

 Calculated polar for: revR_05_revT

 1 1 Reynolds number fixed          Mach number fixed         

 xtrf =   1.000 (top)        1.000 (bottom)
 Mach =   0.000     Re =     0.110 e 6     Ncrit =   9.000

  alpha     CL        CD       CDp       Cm    Top Xtr Bot Xtr   Cpmin    Chinge    XCp    
 ------- -------- --------- --------- -------- ------- ------- -------- --------- ---------
  -5.000  -0.4806   0.02550   0.01727  -0.0306  0.9895  0.0808  -3.0322   0.0000   0.0000   0.0000   0.1807
  -4.500  -0.4103   0.02339   0.01476  -0.0338  0.9768  0.0972  -2.7209   0.0000   0.0000   0.0000   0.1619
  -4.000  -0.3332   0.02114   0.01260  -0.0385  0.9660  0.1306  -2.3702   0.0000   0.0000   0.0000   0.1284
  -3.500  -0.2737   0.01960   0.01136  -0.0400  0.9502  0.2055  -2.0396   0.0000   0.0000   0.0000   0.0974
  -3.000  -0.2084   0.01800   0.01073  -0.0427  0.9363  0.3875  -1.6783   0.0000   0.0000   0.0000   0.0380
  -2.500  -0.1509   0.01708   0.01103  -0.0421  0.9215  0.6630  -1.3459   0.0000   0.0000   0.0000  -0.0369
  -2.000  -0.1022   0.01729   0.01144  -0.0387  0.9038  0.8000  -1.1100   0.0000   0.0000   0.0000  -0.1378
  -1.500  -0.0147   0.01751   0.01156  -0.0413  0.8944  0.8961  -0.8381   0.0000   0.0000   0.0000  -2.6110
  -1.000   0.1106   0.01786   0.01163  -0.0528  0.8826  0.9489  -0.5334   0.0000   0.0000   0.0000   0.7310
  -0.500   0.2808   0.01733   0.01082  -0.0738  0.8777  0.9783  -0.5630   0.0000   0.0000   0.0000   0.5127
   0.500   0.4499   0.01607   0.00930  -0.0855  0.8391  1.0000  -0.7006   0.0000   0.0000   0.0000   0.4387
   1.000   0.4838   0.01595   0.00910  -0.0817  0.8135  1.0000  -0.7422   0.0000   0.0000   0.0000   0.4169
   1.500   0.5166   0.01587   0.00894  -0.0773  0.7874  1.0000  -0.7909   0.0000   0.0000   0.0000   0.3971
   2.000   0.5505   0.01586   0.00886  -0.0728  0.7617  1.0000  -0.8412   0.0000   0.0000   0.0000   0.3794
   2.500   0.5884   0.01586   0.00880  -0.0689  0.7360  1.0000  -0.9023   0.0000   0.0000   0.0000   0.3637
   3.000   0.6314   0.01581   0.00867  -0.0656  0.7090  1.0000  -0.9766   0.0000   0.0000   0.0000   0.3501
   3.500   0.6782   0.01582   0.00862  -0.0630  0.6820  1.0000  -1.0724   0.0000   0.0000   0.0000   0.3387
   4.000   0.7263   0.01588   0.00861  -0.0607  0.6524  1.0000  -1.1827   0.0000   0.0000   0.0000   0.3288
   4.500   0.7715   0.01607   0.00882  -0.0580  0.6179  1.0000  -1.3348   0.0000   0.0000   0.0000   0.3201
   5.000   0.8219   0.01622   0.00886  -0.0561  0.5841  1.0000  -1.5691   0.0000   0.0000   0.0000   0.3126
   5.500   0.8671   0.01660   0.00928  -0.0536  0.5444  1.0000  -1.8817   0.0000   0.0000   0.0000   0.3057
   6.000   0.9130   0.01707   0.00966  -0.0512  0.5033  1.0000  -2.2132   0.0000   0.0000   0.0000   0.2994
   6.500   0.9563   0.01764   0.01012  -0.0485  0.4587  1.0000  -2.5511   0.0000   0.0000   0.0000   0.2935
   7.000   0.9972   0.01840   0.01078  -0.0456  0.4131  1.0000  -2.8922   0.0000   0.0000   0.0000   0.2879
   7.500   1.0324   0.01924   0.01164  -0.0420  0.3624  1.0000  -3.2231   0.0000   0.0000   0.0000   0.2822
   8.000   1.0631   0.02029   0.01266  -0.0378  0.3086  1.0000  -3.5433   0.0000   0.0000   0.0000   0.2765
   8.500   1.0862   0.02173   0.01389  -0.0328  0.2509  1.0000  -3.8362   0.0000   0.0000   0.0000   0.2704
   9.000   1.1010   0.02378   0.01572  -0.0269  0.1917  1.0000  -4.0838   0.0000   0.0000   0.0000   0.2640
   9.500   1.1080   0.02632   0.01806  -0.0201  0.1454  1.0000  -4.2823   0.0000   0.0000   0.0000   0.2571
  10.000   1.1158   0.02915   0.02075  -0.0141  0.1141  1.0000  -4.4669   0.0000   0.0000   0.0000   0.2509
  10.500   1.1235   0.03221   0.02374  -0.0091  0.0901  1.0000  -4.6472   0.0000   0.0000   0.0000   0.2456
  11.000   1.1347   0.03555   0.02722  -0.0051  0.0725  1.0000  -4.8189   0.0000   0.0000   0.0000   0.2412
  11.500   1.1569   0.04037   0.03225  -0.0022  0.0596  1.0000  -4.9355   0.0000   0.0000   0.0000   0.2380
  12.000   1.1691   0.04432   0.03636   0.0008  0.0521  1.0000  -5.0865   0.0000   0.0000   0.0000   0.2347
  12.500   1.1785   0.05186   0.04429   0.0028  0.0472  1.0000  -5.1325   0.0000   0.0000   0.0000   0.2323
  13.000   1.1692   0.05778   0.05072   0.0053  0.0460  1.0000  -5.1534   0.0000   0.0000   0.0000   0.2293
  13.500   1.1473   0.06542   0.05893   0.0064  0.0455  1.0000  -5.1057   0.0000   0.0000   0.0000   0.2275
  14.000   1.1129   0.07501   0.06901   0.0051  0.0454  1.0000  -4.9920   0.0000   0.0000   0.0000   0.2276
  14.500   1.0669   0.08740   0.08178   0.0003  0.0458  1.0000  -4.7987   0.0000   0.0000   0.0000   0.2310
  15.000   1.0079   0.10435   0.09911  -0.0091  0.0466  1.0000  -4.4796   0.0000   0.0000   0.0000   0.2396


