xflr5 v6.59

 Calculated polar for: revR_80_revT

 1 1 Reynolds number fixed          Mach number fixed         

 xtrf =   1.000 (top)        1.000 (bottom)
 Mach =   0.000     Re =     0.215 e 6     Ncrit =   9.000

  alpha     CL        CD       CDp       Cm    Top Xtr Bot Xtr   Cpmin    Chinge    XCp    
 ------- -------- --------- --------- -------- ------- ------- -------- --------- ---------
  -5.000   0.0548   0.01804   0.01083  -0.1394  0.8419  0.0657  -2.2354   0.0000   0.0000   0.0000   2.8583
  -4.500   0.1078   0.01716   0.00981  -0.1389  0.8317  0.0777  -1.9913   0.0000   0.0000   0.0000   1.5671
  -4.000   0.1649   0.01591   0.00849  -0.1391  0.8241  0.1022  -1.7672   0.0000   0.0000   0.0000   1.1103
  -3.500   0.2177   0.01525   0.00798  -0.1391  0.8144  0.1520  -1.5407   0.0000   0.0000   0.0000   0.8997
  -2.500   0.3318   0.01412   0.00728  -0.1397  0.7967  0.3153  -1.0751   0.0000   0.0000   0.0000   0.6759
  -2.000   0.3837   0.01387   0.00737  -0.1395  0.7859  0.4154  -0.8686   0.0000   0.0000   0.0000   0.6166
  -1.500   0.4399   0.01339   0.00721  -0.1393  0.7764  0.5384  -0.7487   0.0000   0.0000   0.0000   0.5683
  -1.000   0.4920   0.01319   0.00737  -0.1380  0.7666  0.6700  -0.7896   0.0000   0.0000   0.0000   0.5310
  -0.500   0.5407   0.01310   0.00748  -0.1358  0.7552  0.7679  -0.8290   0.0000   0.0000   0.0000   0.5008
   0.000   0.5897   0.01296   0.00733  -0.1330  0.7465  0.8450  -0.8698   0.0000   0.0000   0.0000   0.4743
   0.500   0.6264   0.01288   0.00739  -0.1283  0.7335  0.9142  -0.9047   0.0000   0.0000   0.0000   0.4529
   1.000   0.6956   0.01249   0.00682  -0.1303  0.7231  1.0000  -0.9642   0.0000   0.0000   0.0000   0.4347
   1.500   0.7526   0.01273   0.00697  -0.1312  0.7097  1.0000  -1.0187   0.0000   0.0000   0.0000   0.4210
   2.000   0.8149   0.01270   0.00675  -0.1323  0.6986  1.0000  -1.0800   0.0000   0.0000   0.0000   0.4084
   2.500   0.8699   0.01283   0.00684  -0.1323  0.6827  1.0000  -1.1449   0.0000   0.0000   0.0000   0.3975
   3.000   0.9296   0.01286   0.00672  -0.1329  0.6699  1.0000  -1.2147   0.0000   0.0000   0.0000   0.3877
   3.500   0.9840   0.01293   0.00678  -0.1326  0.6531  1.0000  -1.2807   0.0000   0.0000   0.0000   0.3789
   4.000   1.0386   0.01307   0.00689  -0.1324  0.6358  1.0000  -1.3570   0.0000   0.0000   0.0000   0.3710
   4.500   1.0939   0.01317   0.00692  -0.1321  0.6175  1.0000  -1.4394   0.0000   0.0000   0.0000   0.3637
   5.000   1.1485   0.01337   0.00704  -0.1318  0.5985  1.0000  -1.5296   0.0000   0.0000   0.0000   0.3570
   5.500   1.1992   0.01367   0.00734  -0.1310  0.5762  1.0000  -1.6292   0.0000   0.0000   0.0000   0.3507
   6.000   1.2490   0.01404   0.00767  -0.1299  0.5512  1.0000  -1.7416   0.0000   0.0000   0.0000   0.3448
   6.500   1.2973   0.01455   0.00814  -0.1287  0.5259  1.0000  -1.8704   0.0000   0.0000   0.0000   0.3393
   7.000   1.3428   0.01516   0.00871  -0.1270  0.4978  1.0000  -2.0088   0.0000   0.0000   0.0000   0.3339
   7.500   1.3850   0.01588   0.00944  -0.1249  0.4684  1.0000  -2.1689   0.0000   0.0000   0.0000   0.3288
   8.000   1.4241   0.01672   0.01027  -0.1223  0.4378  1.0000  -2.3422   0.0000   0.0000   0.0000   0.3237
   8.500   1.4587   0.01773   0.01123  -0.1191  0.4069  1.0000  -2.5523   0.0000   0.0000   0.0000   0.3187
   9.000   1.4870   0.01893   0.01237  -0.1150  0.3776  1.0000  -2.8072   0.0000   0.0000   0.0000   0.3136
   9.500   1.5100   0.02035   0.01377  -0.1103  0.3480  1.0000  -3.0726   0.0000   0.0000   0.0000   0.3085
  10.000   1.5296   0.02205   0.01549  -0.1057  0.3184  1.0000  -3.3333   0.0000   0.0000   0.0000   0.3037
  10.500   1.5464   0.02414   0.01758  -0.1013  0.2901  1.0000  -3.5898   0.0000   0.0000   0.0000   0.2992
  11.000   1.5600   0.02665   0.02010  -0.0970  0.2623  1.0000  -3.8393   0.0000   0.0000   0.0000   0.2950
  11.500   1.5682   0.02975   0.02315  -0.0928  0.2337  1.0000  -4.0725   0.0000   0.0000   0.0000   0.2910
  12.000   1.5735   0.03333   0.02669  -0.0890  0.2064  1.0000  -4.3002   0.0000   0.0000   0.0000   0.2874
  12.500   1.5780   0.03722   0.03060  -0.0855  0.1811  1.0000  -4.5302   0.0000   0.0000   0.0000   0.2840
  13.000   1.5796   0.04160   0.03501  -0.0824  0.1571  1.0000  -4.7489   0.0000   0.0000   0.0000   0.2810
  13.500   1.5769   0.04664   0.04004  -0.0795  0.1358  1.0000  -4.9480   0.0000   0.0000   0.0000   0.2782
  14.000   1.5716   0.05230   0.04575  -0.0772  0.1170  1.0000  -5.1328   0.0000   0.0000   0.0000   0.2758
  14.500   1.5699   0.05792   0.05149  -0.0755  0.1012  1.0000  -5.3326   0.0000   0.0000   0.0000   0.2737
  15.000   1.5646   0.06424   0.05793  -0.0742  0.0877  1.0000  -5.5096   0.0000   0.0000   0.0000   0.2719


