xflr5 v6.59

 Calculated polar for: revR_90_revT

 1 1 Reynolds number fixed          Mach number fixed         

 xtrf =   1.000 (top)        1.000 (bottom)
 Mach =   0.000     Re =     0.315 e 6     Ncrit =   9.000

  alpha     CL        CD       CDp       Cm    Top Xtr Bot Xtr   Cpmin    Chinge    XCp    
 ------- -------- --------- --------- -------- ------- ------- -------- --------- ---------
  -5.000   0.0980   0.01482   0.00801  -0.1460  0.8033  0.0529  -2.2939   0.0000   0.0000   0.0000   1.7764
  -4.500   0.1544   0.01375   0.00680  -0.1463  0.7961  0.0636  -2.0470   0.0000   0.0000   0.0000   1.2184
  -4.000   0.2108   0.01309   0.00613  -0.1466  0.7885  0.0849  -1.8027   0.0000   0.0000   0.0000   0.9588
  -3.500   0.2664   0.01253   0.00564  -0.1468  0.7797  0.1217  -1.5572   0.0000   0.0000   0.0000   0.8101
  -3.000   0.3237   0.01198   0.00527  -0.1473  0.7715  0.1852  -1.3139   0.0000   0.0000   0.0000   0.7112
  -2.500   0.3816   0.01175   0.00514  -0.1479  0.7639  0.2550  -1.0801   0.0000   0.0000   0.0000   0.6416
  -2.000   0.4370   0.01141   0.00504  -0.1480  0.7550  0.3330  -0.8655   0.0000   0.0000   0.0000   0.5913
  -1.500   0.4944   0.01103   0.00490  -0.1484  0.7461  0.4309  -0.8049   0.0000   0.0000   0.0000   0.5515
  -1.000   0.5515   0.01080   0.00491  -0.1486  0.7371  0.5448  -0.8471   0.0000   0.0000   0.0000   0.5198
  -0.500   0.6050   0.01053   0.00502  -0.1480  0.7272  0.6632  -0.8896   0.0000   0.0000   0.0000   0.4940
   0.000   0.6586   0.01040   0.00504  -0.1470  0.7181  0.7612  -0.9328   0.0000   0.0000   0.0000   0.4717
   0.500   0.7094   0.01038   0.00510  -0.1454  0.7073  0.8255  -0.9748   0.0000   0.0000   0.0000   0.4528
   1.000   0.7556   0.01024   0.00505  -0.1427  0.6962  0.8877  -1.0207   0.0000   0.0000   0.0000   0.4360
   1.500   0.8105   0.01009   0.00485  -0.1419  0.6861  1.0000  -1.0758   0.0000   0.0000   0.0000   0.4215
   2.000   0.8685   0.01013   0.00485  -0.1426  0.6725  1.0000  -1.1332   0.0000   0.0000   0.0000   0.4100
   2.500   0.9281   0.01025   0.00480  -0.1434  0.6599  1.0000  -1.2011   0.0000   0.0000   0.0000   0.3997
   3.000   0.9836   0.01035   0.00489  -0.1435  0.6449  1.0000  -1.2682   0.0000   0.0000   0.0000   0.3904
   3.500   1.0400   0.01053   0.00499  -0.1437  0.6302  1.0000  -1.3369   0.0000   0.0000   0.0000   0.3820
   4.000   1.0949   0.01070   0.00504  -0.1436  0.6118  1.0000  -1.4080   0.0000   0.0000   0.0000   0.3743
   4.500   1.1479   0.01095   0.00531  -0.1432  0.5935  1.0000  -1.4890   0.0000   0.0000   0.0000   0.3673
   5.000   1.2007   0.01128   0.00561  -0.1428  0.5748  1.0000  -1.5717   0.0000   0.0000   0.0000   0.3608
   5.500   1.2514   0.01166   0.00593  -0.1421  0.5521  1.0000  -1.6691   0.0000   0.0000   0.0000   0.3546
   6.000   1.3005   0.01212   0.00633  -0.1410  0.5283  1.0000  -1.7720   0.0000   0.0000   0.0000   0.3488
   6.500   1.3478   0.01268   0.00684  -0.1397  0.5038  1.0000  -1.8963   0.0000   0.0000   0.0000   0.3433
   7.000   1.3920   0.01333   0.00745  -0.1380  0.4761  1.0000  -2.0210   0.0000   0.0000   0.0000   0.3380
   7.500   1.4339   0.01408   0.00816  -0.1359  0.4492  1.0000  -2.1725   0.0000   0.0000   0.0000   0.3329
   8.000   1.4708   0.01497   0.00899  -0.1330  0.4187  1.0000  -2.3192   0.0000   0.0000   0.0000   0.3278
   8.500   1.5025   0.01599   0.00997  -0.1293  0.3910  1.0000  -2.4730   0.0000   0.0000   0.0000   0.3226
   9.000   1.5293   0.01725   0.01118  -0.1251  0.3631  1.0000  -2.6707   0.0000   0.0000   0.0000   0.3175
   9.500   1.5512   0.01885   0.01270  -0.1206  0.3337  1.0000  -2.9107   0.0000   0.0000   0.0000   0.3126
  10.000   1.5722   0.02070   0.01454  -0.1164  0.3075  1.0000  -3.1625   0.0000   0.0000   0.0000   0.3080
  10.500   1.5921   0.02281   0.01664  -0.1126  0.2824  1.0000  -3.4169   0.0000   0.0000   0.0000   0.3038
  11.000   1.6070   0.02541   0.01920  -0.1086  0.2559  1.0000  -3.6627   0.0000   0.0000   0.0000   0.2997
  11.500   1.6207   0.02827   0.02204  -0.1050  0.2289  1.0000  -3.9146   0.0000   0.0000   0.0000   0.2959
  12.000   1.6317   0.03149   0.02528  -0.1015  0.2035  1.0000  -4.1607   0.0000   0.0000   0.0000   0.2924
  12.500   1.6391   0.03514   0.02892  -0.0980  0.1798  1.0000  -4.3955   0.0000   0.0000   0.0000   0.2890
  13.000   1.6434   0.03924   0.03301  -0.0948  0.1568  1.0000  -4.6210   0.0000   0.0000   0.0000   0.2858
  13.500   1.6442   0.04390   0.03765  -0.0918  0.1361  1.0000  -4.8328   0.0000   0.0000   0.0000   0.2829
  14.000   1.6419   0.04915   0.04289  -0.0891  0.1167  1.0000  -5.0321   0.0000   0.0000   0.0000   0.2803
  14.500   1.6429   0.05434   0.04813  -0.0871  0.1011  1.0000  -5.2465   0.0000   0.0000   0.0000   0.2779
  15.000   1.6420   0.05994   0.05386  -0.0854  0.0881  1.0000  -5.4509   0.0000   0.0000   0.0000   0.2758


