xflr5 v6.59

 Calculated polar for: revR_35_revT

 1 1 Reynolds number fixed          Mach number fixed         

 xtrf =   1.000 (top)        1.000 (bottom)
 Mach =   0.000     Re =     0.320 e 6     Ncrit =   9.000

  alpha     CL        CD       CDp       Cm    Top Xtr Bot Xtr   Cpmin    Chinge    XCp    
 ------- -------- --------- --------- -------- ------- ------- -------- --------- ---------
  -5.000  -0.1240   0.01317   0.00637  -0.0960  0.8637  0.0594  -2.4546   0.0000   0.0000   0.0000  -0.5449
  -4.500  -0.0705   0.01236   0.00545  -0.0955  0.8519  0.0774  -2.1119   0.0000   0.0000   0.0000  -1.1366
  -4.000  -0.0179   0.01145   0.00466  -0.0951  0.8392  0.1216  -1.7983   0.0000   0.0000   0.0000  -5.1596
  -3.500   0.0362   0.01083   0.00423  -0.0949  0.8277  0.1931  -1.4803   0.0000   0.0000   0.0000   2.9152
  -3.000   0.0898   0.01027   0.00398  -0.0948  0.8156  0.2847  -1.2416   0.0000   0.0000   0.0000   1.3206
  -2.500   0.1441   0.00976   0.00372  -0.0945  0.8040  0.3893  -1.0236   0.0000   0.0000   0.0000   0.9130
  -2.000   0.1966   0.00923   0.00364  -0.0939  0.7908  0.5312  -0.8178   0.0000   0.0000   0.0000   0.7316
  -1.500   0.2493   0.00890   0.00364  -0.0929  0.7792  0.6597  -0.6264   0.0000   0.0000   0.0000   0.6242
  -1.000   0.3013   0.00879   0.00372  -0.0915  0.7658  0.7437  -0.6144   0.0000   0.0000   0.0000   0.5542
  -0.500   0.3541   0.00879   0.00369  -0.0901  0.7527  0.8004  -0.6562   0.0000   0.0000   0.0000   0.5040
   0.000   0.4044   0.00872   0.00369  -0.0883  0.7379  0.8440  -0.6995   0.0000   0.0000   0.0000   0.4670
   0.500   0.4532   0.00870   0.00369  -0.0860  0.7242  0.8848  -0.7454   0.0000   0.0000   0.0000   0.4379
   1.000   0.5013   0.00862   0.00356  -0.0835  0.7082  0.9257  -0.7940   0.0000   0.0000   0.0000   0.4141
   1.500   0.5632   0.00852   0.00347  -0.0843  0.6908  0.9701  -0.8569   0.0000   0.0000   0.0000   0.3966
   2.000   0.6369   0.00853   0.00338  -0.0882  0.6717  1.0000  -0.9287   0.0000   0.0000   0.0000   0.3850
   2.500   0.6905   0.00866   0.00340  -0.0880  0.6512  1.0000  -0.9923   0.0000   0.0000   0.0000   0.3735
   3.000   0.7452   0.00882   0.00347  -0.0879  0.6286  1.0000  -1.0657   0.0000   0.0000   0.0000   0.3635
   3.500   0.7996   0.00905   0.00361  -0.0877  0.6050  1.0000  -1.1444   0.0000   0.0000   0.0000   0.3547
   4.000   0.8530   0.00931   0.00379  -0.0873  0.5770  1.0000  -1.2353   0.0000   0.0000   0.0000   0.3468
   4.500   0.9057   0.00966   0.00405  -0.0868  0.5479  1.0000  -1.3422   0.0000   0.0000   0.0000   0.3397
   5.000   0.9572   0.01011   0.00437  -0.0860  0.5166  1.0000  -1.4709   0.0000   0.0000   0.0000   0.3333
   5.500   1.0082   0.01057   0.00478  -0.0853  0.4825  1.0000  -1.6243   0.0000   0.0000   0.0000   0.3274
   6.000   1.0572   0.01118   0.00526  -0.0843  0.4471  1.0000  -1.8775   0.0000   0.0000   0.0000   0.3219
   6.500   1.1059   0.01180   0.00583  -0.0832  0.4094  1.0000  -2.1966   0.0000   0.0000   0.0000   0.3169
   7.000   1.1521   0.01259   0.00649  -0.0819  0.3699  1.0000  -2.5226   0.0000   0.0000   0.0000   0.3121
   7.500   1.1966   0.01347   0.00727  -0.0804  0.3292  1.0000  -2.8688   0.0000   0.0000   0.0000   0.3075
   8.000   1.2370   0.01459   0.00817  -0.0784  0.2781  1.0000  -3.2178   0.0000   0.0000   0.0000   0.3030
   8.500   1.2753   0.01583   0.00922  -0.0761  0.2307  1.0000  -3.5704   0.0000   0.0000   0.0000   0.2986
   9.000   1.3107   0.01720   0.01047  -0.0736  0.1891  1.0000  -3.9220   0.0000   0.0000   0.0000   0.2944
   9.500   1.3398   0.01876   0.01188  -0.0701  0.1481  1.0000  -4.2566   0.0000   0.0000   0.0000   0.2898
  10.000   1.3634   0.02068   0.01363  -0.0663  0.1108  1.0000  -4.5740   0.0000   0.0000   0.0000   0.2854
  10.500   1.3836   0.02289   0.01574  -0.0625  0.0839  1.0000  -4.8788   0.0000   0.0000   0.0000   0.2812
  11.000   1.4020   0.02539   0.01821  -0.0591  0.0644  1.0000  -5.1738   0.0000   0.0000   0.0000   0.2773
  11.500   1.4183   0.02821   0.02114  -0.0559  0.0503  1.0000  -5.4525   0.0000   0.0000   0.0000   0.2737
  12.000   1.4256   0.03201   0.02501  -0.0526  0.0388  1.0000  -5.6660   0.0000   0.0000   0.0000   0.2703
  12.500   1.4301   0.03628   0.02937  -0.0499  0.0305  1.0000  -5.8505   0.0000   0.0000   0.0000   0.2673
  13.000   1.4202   0.04222   0.03556  -0.0469  0.0260  1.0000  -5.9150   0.0000   0.0000   0.0000   0.2645
  13.500   1.4221   0.04728   0.04086  -0.0452  0.0240  1.0000  -6.0689   0.0000   0.0000   0.0000   0.2623
  14.000   1.4195   0.05304   0.04684  -0.0439  0.0225  1.0000  -6.2008   0.0000   0.0000   0.0000   0.2604
  14.500   1.4164   0.05925   0.05327  -0.0432  0.0214  1.0000  -6.3321   0.0000   0.0000   0.0000   0.2590
  15.000   1.4112   0.06600   0.06024  -0.0432  0.0205  1.0000  -6.4527   0.0000   0.0000   0.0000   0.2580


