xflr5 v6.59

 Calculated polar for: revR_15_revT

 1 1 Reynolds number fixed          Mach number fixed         

 xtrf =   1.000 (top)        1.000 (bottom)
 Mach =   0.000     Re =     0.075 e 6     Ncrit =   9.000

  alpha     CL        CD       CDp       Cm    Top Xtr Bot Xtr   Cpmin    Chinge    XCp    
 ------- -------- --------- --------- -------- ------- ------- -------- --------- ---------
  -5.000  -0.5045   0.03344   0.02510  -0.0310  1.0000  0.1019  -2.8956   0.0000   0.0000   0.0000   0.1832
  -4.500  -0.4695   0.03050   0.02185  -0.0289  1.0000  0.1128  -2.7160   0.0000   0.0000   0.0000   0.1832
  -4.000  -0.4297   0.02758   0.01822  -0.0266  1.0000  0.1233  -2.5706   0.0000   0.0000   0.0000   0.1829
  -3.500  -0.3810   0.02547   0.01614  -0.0267  0.9959  0.1525  -2.3185   0.0000   0.0000   0.0000   0.1749
  -3.000  -0.3081   0.02401   0.01489  -0.0308  0.9808  0.2244  -2.0149   0.0000   0.0000   0.0000   0.1447
  -2.500  -0.2351   0.02257   0.01466  -0.0349  0.9661  0.4259  -1.6837   0.0000   0.0000   0.0000   0.0957
  -2.000  -0.1937   0.02200   0.01549  -0.0303  0.9479  0.7335  -1.4192   0.0000   0.0000   0.0000   0.0875
  -1.500  -0.0986   0.02291   0.01644  -0.0339  0.9328  0.9462  -1.0866   0.0000   0.0000   0.0000  -0.1035
  -1.000   0.0691   0.02376   0.01657  -0.0563  0.9204  1.0000  -0.6825   0.0000   0.0000   0.0000   1.0731
  -0.500   0.1180   0.02395   0.01642  -0.0576  0.8973  1.0000  -0.5291   0.0000   0.0000   0.0000   0.7403
   0.000   0.1707   0.02439   0.01655  -0.0586  0.8747  1.0000  -0.5057   0.0000   0.0000   0.0000   0.5932
   0.500   0.2312   0.02488   0.01681  -0.0603  0.8521  1.0000  -0.5534   0.0000   0.0000   0.0000   0.5094
   1.000   0.2943   0.02535   0.01709  -0.0620  0.8295  1.0000  -0.6067   0.0000   0.0000   0.0000   0.4585
   1.500   0.3599   0.02574   0.01736  -0.0637  0.8073  1.0000  -0.6637   0.0000   0.0000   0.0000   0.4245
   2.500   0.4935   0.02605   0.01760  -0.0664  0.7624  1.0000  -0.7996   0.0000   0.0000   0.0000   0.3810
   3.000   0.5573   0.02603   0.01759  -0.0666  0.7395  1.0000  -0.8758   0.0000   0.0000   0.0000   0.3656
   3.500   0.6210   0.02581   0.01743  -0.0664  0.7158  1.0000  -0.9635   0.0000   0.0000   0.0000   0.3526
   4.000   0.6836   0.02546   0.01715  -0.0658  0.6912  1.0000  -1.0671   0.0000   0.0000   0.0000   0.3414
   4.500   0.7448   0.02508   0.01686  -0.0648  0.6654  1.0000  -1.1868   0.0000   0.0000   0.0000   0.3318
   5.000   0.8090   0.02439   0.01626  -0.0639  0.6380  1.0000  -1.3497   0.0000   0.0000   0.0000   0.3233
   5.500   0.8756   0.02364   0.01552  -0.0633  0.6094  1.0000  -1.5719   0.0000   0.0000   0.0000   0.3161
   6.000   0.9193   0.02395   0.01600  -0.0602  0.5720  1.0000  -1.8672   0.0000   0.0000   0.0000   0.3088
   6.500   0.9786   0.02364   0.01563  -0.0588  0.5353  1.0000  -2.2341   0.0000   0.0000   0.0000   0.3028
   7.000   1.0273   0.02378   0.01572  -0.0562  0.4918  1.0000  -2.5810   0.0000   0.0000   0.0000   0.2967
   7.500   1.0692   0.02436   0.01636  -0.0529  0.4458  1.0000  -2.9149   0.0000   0.0000   0.0000   0.2909
   8.000   1.1078   0.02510   0.01701  -0.0493  0.3966  1.0000  -3.2478   0.0000   0.0000   0.0000   0.2852
   8.500   1.1368   0.02616   0.01797  -0.0445  0.3433  1.0000  -3.5508   0.0000   0.0000   0.0000   0.2792
   9.000   1.1568   0.02770   0.01943  -0.0388  0.2875  1.0000  -3.8154   0.0000   0.0000   0.0000   0.2729
   9.500   1.1687   0.02974   0.02126  -0.0324  0.2327  1.0000  -4.0435   0.0000   0.0000   0.0000   0.2664
  10.000   1.1771   0.03256   0.02383  -0.0261  0.1855  1.0000  -4.2334   0.0000   0.0000   0.0000   0.2601
  10.500   1.1833   0.03582   0.02704  -0.0200  0.1494  1.0000  -4.3953   0.0000   0.0000   0.0000   0.2541
  11.000   1.2000   0.03974   0.03097  -0.0158  0.1221  1.0000  -4.5742   0.0000   0.0000   0.0000   0.2497
  11.500   1.2109   0.04404   0.03542  -0.0117  0.1019  1.0000  -4.7157   0.0000   0.0000   0.0000   0.2454
  12.000   1.2220   0.04934   0.04091  -0.0085  0.0872  1.0000  -4.8295   0.0000   0.0000   0.0000   0.2420
  12.500   1.2202   0.05434   0.04628  -0.0048  0.0784  1.0000  -4.8943   0.0000   0.0000   0.0000   0.2382
  13.000   1.2247   0.06268   0.05491  -0.0031  0.0724  1.0000  -4.9251   0.0000   0.0000   0.0000   0.2361
  13.500   1.1893   0.07209   0.06486  -0.0012  0.0713  1.0000  -4.8057   0.0000   0.0000   0.0000   0.2338
  14.000   1.1448   0.08215   0.07542  -0.0020  0.0713  1.0000  -4.6603   0.0000   0.0000   0.0000   0.2337
  14.500   1.0933   0.09462   0.08835  -0.0064  0.0718  1.0000  -4.4606   0.0000   0.0000   0.0000   0.2369
  15.000   0.8582   0.15740   0.15137  -0.0470  0.1067  1.0000  -2.6077   0.0000   0.0000   0.0000   0.2874


