xflr5 v6.59

 Calculated polar for: revR_45_revT

 1 1 Reynolds number fixed          Mach number fixed         

 xtrf =   1.000 (top)        1.000 (bottom)
 Mach =   0.000     Re =     0.135 e 6     Ncrit =   9.000

  alpha     CL        CD       CDp       Cm    Top Xtr Bot Xtr   Cpmin    Chinge    XCp    
 ------- -------- --------- --------- -------- ------- ------- -------- --------- ---------
  -5.000  -0.1375   0.02328   0.01539  -0.1041  0.9207  0.0868  -2.4005   0.0000   0.0000   0.0000  -0.5283
  -4.500  -0.0890   0.02135   0.01328  -0.1031  0.9066  0.1020  -2.1670   0.0000   0.0000   0.0000  -0.9377
  -4.000  -0.0138   0.01967   0.01166  -0.1069  0.8994  0.1458  -1.8324   0.0000   0.0000   0.0000  -7.6888
  -3.500   0.0384   0.01872   0.01104  -0.1069  0.8856  0.2231  -1.5536   0.0000   0.0000   0.0000   3.0861
  -3.000   0.1053   0.01759   0.01039  -0.1091  0.8762  0.3525  -1.3010   0.0000   0.0000   0.0000   1.3014
  -2.500   0.1552   0.01708   0.01048  -0.1082  0.8623  0.5071  -1.0912   0.0000   0.0000   0.0000   0.9557
  -2.000   0.2106   0.01656   0.01047  -0.1065  0.8519  0.6674  -0.8746   0.0000   0.0000   0.0000   0.7606
  -1.500   0.2503   0.01681   0.01090  -0.1020  0.8365  0.7777  -0.7055   0.0000   0.0000   0.0000   0.6603
  -1.000   0.2954   0.01654   0.01063  -0.0969  0.8260  0.8570  -0.6142   0.0000   0.0000   0.0000   0.5794
  -0.500   0.3328   0.01662   0.01069  -0.0919  0.8094  0.9313  -0.6444   0.0000   0.0000   0.0000   0.5264
   0.000   0.4439   0.01594   0.00977  -0.1011  0.8018  0.9938  -0.7233   0.0000   0.0000   0.0000   0.4771
   0.500   0.4863   0.01616   0.00984  -0.0999  0.7830  1.0000  -0.7622   0.0000   0.0000   0.0000   0.4539
   1.000   0.5374   0.01630   0.00982  -0.0993  0.7664  1.0000  -0.8106   0.0000   0.0000   0.0000   0.4327
   1.500   0.6000   0.01606   0.00938  -0.0999  0.7542  1.0000  -0.8722   0.0000   0.0000   0.0000   0.4138
   2.000   0.6520   0.01623   0.00948  -0.0993  0.7350  1.0000  -0.9300   0.0000   0.0000   0.0000   0.3989
   2.500   0.7068   0.01630   0.00948  -0.0988  0.7166  1.0000  -0.9915   0.0000   0.0000   0.0000   0.3859
   3.000   0.7643   0.01623   0.00933  -0.0985  0.6995  1.0000  -1.0629   0.0000   0.0000   0.0000   0.3744
   3.500   0.8242   0.01600   0.00898  -0.0984  0.6819  1.0000  -1.1438   0.0000   0.0000   0.0000   0.3644
   4.000   0.8779   0.01603   0.00900  -0.0975  0.6597  1.0000  -1.2270   0.0000   0.0000   0.0000   0.3556
   4.500   0.9319   0.01606   0.00902  -0.0968  0.6365  1.0000  -1.3245   0.0000   0.0000   0.0000   0.3477
   5.000   0.9860   0.01615   0.00908  -0.0960  0.6121  1.0000  -1.4381   0.0000   0.0000   0.0000   0.3407
   5.500   1.0381   0.01634   0.00926  -0.0949  0.5842  1.0000  -1.5720   0.0000   0.0000   0.0000   0.3341
   6.000   1.0877   0.01668   0.00964  -0.0935  0.5533  1.0000  -1.7265   0.0000   0.0000   0.0000   0.3281
   6.500   1.1373   0.01708   0.00999  -0.0921  0.5206  1.0000  -1.9239   0.0000   0.0000   0.0000   0.3225
   7.000   1.1843   0.01767   0.01054  -0.0904  0.4855  1.0000  -2.2296   0.0000   0.0000   0.0000   0.3172
   7.500   1.2284   0.01840   0.01125  -0.0884  0.4487  1.0000  -2.5393   0.0000   0.0000   0.0000   0.3121
   8.000   1.2692   0.01931   0.01215  -0.0860  0.4103  1.0000  -2.8499   0.0000   0.0000   0.0000   0.3071
   8.500   1.3062   0.02040   0.01314  -0.0831  0.3707  1.0000  -3.1661   0.0000   0.0000   0.0000   0.3023
   9.000   1.3380   0.02164   0.01443  -0.0797  0.3310  1.0000  -3.4777   0.0000   0.0000   0.0000   0.2975
   9.500   1.3636   0.02317   0.01593  -0.0755  0.2908  1.0000  -3.7741   0.0000   0.0000   0.0000   0.2925
  10.000   1.3776   0.02509   0.01771  -0.0701  0.2514  1.0000  -4.0325   0.0000   0.0000   0.0000   0.2872
  10.500   1.3870   0.02752   0.02011  -0.0649  0.2119  1.0000  -4.2711   0.0000   0.0000   0.0000   0.2823
  11.000   1.3930   0.03066   0.02320  -0.0603  0.1755  1.0000  -4.4902   0.0000   0.0000   0.0000   0.2779
  11.500   1.3935   0.03461   0.02709  -0.0560  0.1437  1.0000  -4.6804   0.0000   0.0000   0.0000   0.2740
  12.000   1.3908   0.03928   0.03161  -0.0522  0.1170  1.0000  -4.8461   0.0000   0.0000   0.0000   0.2704
  12.500   1.3893   0.04420   0.03651  -0.0490  0.0960  1.0000  -5.0042   0.0000   0.0000   0.0000   0.2673
  13.000   1.3897   0.04913   0.04168  -0.0470  0.0811  1.0000  -5.1676   0.0000   0.0000   0.0000   0.2649
  13.500   1.3889   0.05454   0.04725  -0.0447  0.0690  1.0000  -5.2978   0.0000   0.0000   0.0000   0.2623
  14.000   1.3847   0.06042   0.05320  -0.0432  0.0597  1.0000  -5.4197   0.0000   0.0000   0.0000   0.2603
  14.500   1.3863   0.06626   0.05932  -0.0412  0.0529  1.0000  -5.5120   0.0000   0.0000   0.0000   0.2579
  15.000   1.3851   0.07256   0.06594  -0.0403  0.0481  1.0000  -5.6115   0.0000   0.0000   0.0000   0.2563


