xflr5 v6.59

 Calculated polar for: revR_40_revT

 1 1 Reynolds number fixed          Mach number fixed         

 xtrf =   1.000 (top)        1.000 (bottom)
 Mach =   0.000     Re =     0.045 e 6     Ncrit =   9.000

  alpha     CL        CD       CDp       Cm    Top Xtr Bot Xtr   Cpmin    Chinge    XCp    
 ------- -------- --------- --------- -------- ------- ------- -------- --------- ---------
  -5.000  -0.4491   0.05247   0.04496  -0.0455  1.0000  0.1660  -2.3697   0.0000   0.0000   0.0000   0.1431
  -4.500  -0.3997   0.04407   0.03559  -0.0503  1.0000  0.1651  -2.3518   0.0000   0.0000   0.0000   0.1181
  -4.000  -0.3508   0.03932   0.03031  -0.0524  1.0000  0.1827  -2.2099   0.0000   0.0000   0.0000   0.0944
  -3.500  -0.2943   0.03498   0.02514  -0.0546  1.0000  0.2027  -2.0816   0.0000   0.0000   0.0000   0.0576
  -3.000  -0.2440   0.03269   0.02265  -0.0552  1.0000  0.2504  -1.8977   0.0000   0.0000   0.0000   0.0166
  -2.500  -0.1925   0.03083   0.02084  -0.0555  1.0000  0.3381  -1.7004   0.0000   0.0000   0.0000  -0.0467
  -2.000  -0.1433   0.02936   0.02035  -0.0545  1.0000  0.5126  -1.4868   0.0000   0.0000   0.0000  -0.1401
  -1.500  -0.1258   0.02876   0.02100  -0.0441  1.0000  0.7663  -1.3551   0.0000   0.0000   0.0000  -0.1095
  -1.000  -0.1074   0.02788   0.01996  -0.0393  1.0000  1.0000  -1.2354   0.0000   0.0000   0.0000  -0.1250
  -0.500  -0.0536   0.02931   0.02053  -0.0436  1.0000  1.0000  -1.0421   0.0000   0.0000   0.0000  -0.5769
   0.000   0.0262   0.03180   0.02231  -0.0521  0.9849  1.0000  -0.8067   0.0000   0.0000   0.0000   2.2509
   0.500   0.1094   0.03451   0.02448  -0.0606  0.9606  1.0000  -0.5811   0.0000   0.0000   0.0000   0.8048
   1.000   0.1838   0.03706   0.02665  -0.0673  0.9351  1.0000  -0.5243   0.0000   0.0000   0.0000   0.6145
   1.500   0.2522   0.03957   0.02889  -0.0725  0.9090  1.0000  -0.5718   0.0000   0.0000   0.0000   0.5350
   2.000   0.3181   0.04209   0.03121  -0.0770  0.8816  1.0000  -0.6218   0.0000   0.0000   0.0000   0.4887
   2.500   0.3832   0.04464   0.03364  -0.0809  0.8542  1.0000  -0.6749   0.0000   0.0000   0.0000   0.4573
   3.000   0.4530   0.04723   0.03615  -0.0850  0.8266  1.0000  -0.7348   0.0000   0.0000   0.0000   0.4333
   3.500   0.4970   0.04972   0.03863  -0.0854  0.7974  1.0000  -0.7788   0.0000   0.0000   0.0000   0.4171
   4.000   0.5391   0.05233   0.04128  -0.0856  0.7680  1.0000  -0.8259   0.0000   0.0000   0.0000   0.4035
   4.500   0.5894   0.05489   0.04389  -0.0865  0.7384  1.0000  -0.8842   0.0000   0.0000   0.0000   0.3909
   5.000   0.6491   0.05718   0.04630  -0.0877  0.7096  1.0000  -0.9603   0.0000   0.0000   0.0000   0.3789
   5.500   0.6978   0.05969   0.04895  -0.0877  0.6805  1.0000  -1.0338   0.0000   0.0000   0.0000   0.3689
   6.000   0.7194   0.06321   0.05260  -0.0859  0.6496  1.0000  -1.0823   0.0000   0.0000   0.0000   0.3621
   6.500   0.7574   0.06629   0.05587  -0.0851  0.6206  1.0000  -1.1578   0.0000   0.0000   0.0000   0.3546
   7.000   0.8155   0.06793   0.05776  -0.0845  0.5911  1.0000  -1.2816   0.0000   0.0000   0.0000   0.3453
   7.500   0.8505   0.07098   0.06102  -0.0828  0.5614  1.0000  -1.3866   0.0000   0.0000   0.0000   0.3385
   8.000   0.8563   0.07651   0.06672  -0.0811  0.5317  1.0000  -1.4353   0.0000   0.0000   0.0000   0.3352
   8.500   0.8905   0.07953   0.07000  -0.0792  0.5004  1.0000  -1.5665   0.0000   0.0000   0.0000   0.3288
   9.000   0.9960   0.07428   0.06528  -0.0747  0.4694  1.0000  -2.0148   0.0000   0.0000   0.0000   0.3142
  10.000   1.2873   0.05008   0.04200  -0.0640  0.3726  1.0000  -3.4846   0.0000   0.0000   0.0000   0.2871
  10.500   1.1779   0.06529   0.05747  -0.0575  0.3572  1.0000  -3.1614   0.0000   0.0000   0.0000   0.2856
  11.000   0.9995   0.10029   0.09202  -0.0678  0.3462  1.0000  -2.4136   0.0000   0.0000   0.0000   0.3044
  11.500   0.9843   0.11053   0.10236  -0.0687  0.3221  1.0000  -2.4090   0.0000   0.0000   0.0000   0.3057
  12.000   1.0896   0.09702   0.08946  -0.0558  0.2771  1.0000  -3.0606   0.0000   0.0000   0.0000   0.2859
  12.500   0.9698   0.12874   0.12079  -0.0704  0.2746  1.0000  -2.4470   0.0000   0.0000   0.0000   0.3072
  13.000   0.9324   0.14499   0.13703  -0.0771  0.2707  1.0000  -2.2475   0.0000   0.0000   0.0000   0.3170
  13.500   0.9182   0.15879   0.15089  -0.0826  0.2739  1.0000  -2.1405   0.0000   0.0000   0.0000   0.3239
  14.000   0.9105   0.17046   0.16262  -0.0874  0.2746  1.0000  -2.0660   0.0000   0.0000   0.0000   0.3294


