xflr5 v6.59

 Calculated polar for: revR_60_revT

 1 1 Reynolds number fixed          Mach number fixed         

 xtrf =   1.000 (top)        1.000 (bottom)
 Mach =   0.000     Re =     0.050 e 6     Ncrit =   9.000

  alpha     CL        CD       CDp       Cm    Top Xtr Bot Xtr   Cpmin    Chinge    XCp    
 ------- -------- --------- --------- -------- ------- ------- -------- --------- ---------
  -5.000  -0.4561   0.06766   0.06134  -0.0435  1.0000  0.1774  -2.2054   0.0000   0.0000   0.0000   0.1488
  -4.500  -0.4046   0.05327   0.04608  -0.0538  1.0000  0.1509  -2.3185   0.0000   0.0000   0.0000   0.1106
  -4.000  -0.3473   0.04535   0.03716  -0.0606  1.0000  0.1560  -2.2717   0.0000   0.0000   0.0000   0.0684
  -3.500  -0.2931   0.04066   0.03191  -0.0636  1.0000  0.1642  -2.1385   0.0000   0.0000   0.0000   0.0251
  -3.000  -0.2362   0.03745   0.02798  -0.0664  1.0000  0.1861  -1.9821   0.0000   0.0000   0.0000  -0.0399
  -2.500  -0.1820   0.03560   0.02569  -0.0680  1.0000  0.2242  -1.8117   0.0000   0.0000   0.0000  -0.1337
  -2.000  -0.1311   0.03449   0.02477  -0.0690  1.0000  0.2959  -1.6364   0.0000   0.0000   0.0000  -0.2887
  -1.500  -0.0457   0.03408   0.02519  -0.0751  0.9897  0.4878  -1.4001   0.0000   0.0000   0.0000  -1.4250
  -1.000  -0.0009   0.03407   0.02650  -0.0702  0.9742  0.7781  -1.2125   0.0000   0.0000   0.0000  -81.9087
  -0.500   0.0508   0.03447   0.02647  -0.0718  0.9542  1.0000  -1.0305   0.0000   0.0000   0.0000   1.6800
   0.000   0.1288   0.03676   0.02798  -0.0794  0.9328  1.0000  -0.7942   0.0000   0.0000   0.0000   0.8697
   0.500   0.1970   0.03909   0.02978  -0.0846  0.9120  1.0000  -0.5974   0.0000   0.0000   0.0000   0.6799
   1.000   0.2626   0.04144   0.03173  -0.0890  0.8894  1.0000  -0.5834   0.0000   0.0000   0.0000   0.5876
   1.500   0.3247   0.04381   0.03380  -0.0925  0.8663  1.0000  -0.6275   0.0000   0.0000   0.0000   0.5327
   2.000   0.3828   0.04617   0.03594  -0.0951  0.8424  1.0000  -0.6732   0.0000   0.0000   0.0000   0.4955
   2.500   0.4372   0.04854   0.03815  -0.0970  0.8179  1.0000  -0.7175   0.0000   0.0000   0.0000   0.4683
   3.000   0.4886   0.05101   0.04052  -0.0984  0.7937  1.0000  -0.7631   0.0000   0.0000   0.0000   0.4472
   3.500   0.5363   0.05344   0.04289  -0.0991  0.7678  1.0000  -0.8076   0.0000   0.0000   0.0000   0.4299
   4.000   0.5825   0.05594   0.04538  -0.0995  0.7418  1.0000  -0.8565   0.0000   0.0000   0.0000   0.4153
   4.500   0.6266   0.05859   0.04805  -0.0996  0.7165  1.0000  -0.9049   0.0000   0.0000   0.0000   0.4030
   5.000   0.6705   0.06116   0.05067  -0.0995  0.6902  1.0000  -0.9590   0.0000   0.0000   0.0000   0.3918
   5.500   0.7136   0.06379   0.05338  -0.0992  0.6643  1.0000  -1.0182   0.0000   0.0000   0.0000   0.3818
   6.000   0.7569   0.06636   0.05606  -0.0987  0.6385  1.0000  -1.0807   0.0000   0.0000   0.0000   0.3727
   6.500   0.7984   0.06902   0.05886  -0.0980  0.6130  1.0000  -1.1518   0.0000   0.0000   0.0000   0.3644
   7.000   0.8399   0.07160   0.06161  -0.0970  0.5877  1.0000  -1.2356   0.0000   0.0000   0.0000   0.3565
   7.500   0.8845   0.07376   0.06395  -0.0957  0.5622  1.0000  -1.3274   0.0000   0.0000   0.0000   0.3486
   8.000   0.9242   0.07626   0.06666  -0.0942  0.5372  1.0000  -1.4269   0.0000   0.0000   0.0000   0.3416
   8.500   0.9739   0.07738   0.06803  -0.0921  0.5119  1.0000  -1.5712   0.0000   0.0000   0.0000   0.3336
   9.000   0.9641   0.08468   0.07547  -0.0904  0.4844  1.0000  -1.5883   0.0000   0.0000   0.0000   0.3321
   9.500   0.9632   0.09117   0.08213  -0.0889  0.4569  1.0000  -1.6235   0.0000   0.0000   0.0000   0.3300
  10.000   0.9722   0.09718   0.08832  -0.0877  0.4320  1.0000  -1.6970   0.0000   0.0000   0.0000   0.3273
  10.500   0.9801   0.10302   0.09437  -0.0865  0.4050  1.0000  -1.7739   0.0000   0.0000   0.0000   0.3246
  11.500   1.4256   0.05449   0.04684  -0.0687  0.3144  1.0000  -3.8468   0.0000   0.0000   0.0000   0.2820
  12.000   1.3268   0.06842   0.06117  -0.0626  0.3039  1.0000  -3.5783   0.0000   0.0000   0.0000   0.2803
  12.500   1.1809   0.09695   0.08959  -0.0675  0.2958  1.0000  -3.0199   0.0000   0.0000   0.0000   0.2897
  13.000   1.0064   0.13854   0.13080  -0.0855  0.2903  1.0000  -2.1817   0.0000   0.0000   0.0000   0.3177
  13.500   0.9733   0.15341   0.14570  -0.0915  0.2829  1.0000  -2.0374   0.0000   0.0000   0.0000   0.3264
  14.000   0.9817   0.16006   0.15249  -0.0922  0.2591  1.0000  -2.1181   0.0000   0.0000   0.0000   0.3255
  14.500   0.9627   0.17605   0.16857  -0.1000  0.2768  1.0000  -1.9695   0.0000   0.0000   0.0000   0.3351
  15.000   0.9984   0.18152   0.17425  -0.0982  0.2495  1.0000  -2.1684   0.0000   0.0000   0.0000   0.3287


