xflr5 v6.59

 Calculated polar for: revR_45_revT

 1 1 Reynolds number fixed          Mach number fixed         

 xtrf =   1.000 (top)        1.000 (bottom)
 Mach =   0.000     Re =     0.245 e 6     Ncrit =   9.000

  alpha     CL        CD       CDp       Cm    Top Xtr Bot Xtr   Cpmin    Chinge    XCp    
 ------- -------- --------- --------- -------- ------- ------- -------- --------- ---------
  -5.000  -0.0782   0.01532   0.00823  -0.1079  0.8733  0.0679  -2.3554   0.0000   0.0000   0.0000  -1.1658
  -4.500  -0.0279   0.01410   0.00696  -0.1071  0.8609  0.0863  -2.0706   0.0000   0.0000   0.0000  -3.6789
  -4.000   0.0265   0.01317   0.00608  -0.1068  0.8504  0.1292  -1.7600   0.0000   0.0000   0.0000   4.3546
  -3.500   0.0785   0.01251   0.00569  -0.1064  0.8378  0.2033  -1.4818   0.0000   0.0000   0.0000   1.6277
  -3.000   0.1335   0.01191   0.00530  -0.1063  0.8273  0.2927  -1.2520   0.0000   0.0000   0.0000   1.0572
  -1.500   0.2898   0.01064   0.00515  -0.1036  0.7909  0.6744  -0.6370   0.0000   0.0000   0.0000   0.6093
  -1.000   0.3409   0.01054   0.00518  -0.1016  0.7797  0.7647  -0.6503   0.0000   0.0000   0.0000   0.5486
  -0.500   0.3897   0.01056   0.00526  -0.0994  0.7661  0.8233  -0.6876   0.0000   0.0000   0.0000   0.5046
   0.000   0.4382   0.01048   0.00512  -0.0967  0.7539  0.8728  -0.7313   0.0000   0.0000   0.0000   0.4694
   0.500   0.4810   0.01033   0.00504  -0.0929  0.7387  0.9242  -0.7722   0.0000   0.0000   0.0000   0.4414
   1.000   0.5499   0.01020   0.00481  -0.0949  0.7259  0.9741  -0.8324   0.0000   0.0000   0.0000   0.4202
   1.500   0.6193   0.01011   0.00459  -0.0980  0.7091  1.0000  -0.8982   0.0000   0.0000   0.0000   0.4052
   2.000   0.6735   0.01023   0.00462  -0.0980  0.6918  1.0000  -0.9584   0.0000   0.0000   0.0000   0.3920
   2.500   0.7295   0.01034   0.00462  -0.0981  0.6740  1.0000  -1.0216   0.0000   0.0000   0.0000   0.3804
   3.000   0.7853   0.01045   0.00462  -0.0981  0.6548  1.0000  -1.0929   0.0000   0.0000   0.0000   0.3703
   3.500   0.8403   0.01060   0.00467  -0.0978  0.6334  1.0000  -1.1694   0.0000   0.0000   0.0000   0.3613
   4.000   0.8943   0.01081   0.00482  -0.0975  0.6105  1.0000  -1.2542   0.0000   0.0000   0.0000   0.3533
   4.500   0.9470   0.01107   0.00505  -0.0968  0.5842  1.0000  -1.3544   0.0000   0.0000   0.0000   0.3460
   5.000   0.9988   0.01141   0.00536  -0.0961  0.5555  1.0000  -1.4658   0.0000   0.0000   0.0000   0.3394
   5.500   1.0495   0.01184   0.00573  -0.0952  0.5250  1.0000  -1.6055   0.0000   0.0000   0.0000   0.3333
   6.000   1.0987   0.01241   0.00617  -0.0941  0.4926  1.0000  -1.7607   0.0000   0.0000   0.0000   0.3276
   6.500   1.1464   0.01300   0.00674  -0.0928  0.4573  1.0000  -1.9938   0.0000   0.0000   0.0000   0.3223
   7.000   1.1922   0.01375   0.00740  -0.0913  0.4226  1.0000  -2.3005   0.0000   0.0000   0.0000   0.3172
   7.500   1.2356   0.01457   0.00817  -0.0895  0.3833  1.0000  -2.6131   0.0000   0.0000   0.0000   0.3124
   8.000   1.2761   0.01558   0.00907  -0.0873  0.3468  1.0000  -2.9395   0.0000   0.0000   0.0000   0.3077
   8.500   1.3143   0.01665   0.01012  -0.0849  0.3080  1.0000  -3.2718   0.0000   0.0000   0.0000   0.3032
   9.000   1.3471   0.01795   0.01132  -0.0818  0.2666  1.0000  -3.5952   0.0000   0.0000   0.0000   0.2986
   9.500   1.3717   0.01953   0.01277  -0.0777  0.2280  1.0000  -3.8959   0.0000   0.0000   0.0000   0.2937
  10.000   1.3931   0.02144   0.01456  -0.0736  0.1884  1.0000  -4.1889   0.0000   0.0000   0.0000   0.2891
  10.500   1.4097   0.02382   0.01681  -0.0695  0.1490  1.0000  -4.4663   0.0000   0.0000   0.0000   0.2848
  11.500   1.4332   0.03004   0.02290  -0.0623  0.0905  1.0000  -4.9782   0.0000   0.0000   0.0000   0.2772
  12.000   1.4397   0.03390   0.02678  -0.0591  0.0724  1.0000  -5.2035   0.0000   0.0000   0.0000   0.2739
  12.500   1.4386   0.03870   0.03159  -0.0561  0.0578  1.0000  -5.3831   0.0000   0.0000   0.0000   0.2709
  13.000   1.4456   0.04298   0.03608  -0.0539  0.0491  1.0000  -5.5920   0.0000   0.0000   0.0000   0.2682
  13.500   1.4300   0.04973   0.04291  -0.0514  0.0408  1.0000  -5.6667   0.0000   0.0000   0.0000   0.2659
  14.000   1.4309   0.05519   0.04863  -0.0501  0.0366  1.0000  -5.8109   0.0000   0.0000   0.0000   0.2639
  14.500   1.4282   0.06134   0.05499  -0.0493  0.0327  1.0000  -5.9339   0.0000   0.0000   0.0000   0.2624
  15.000   1.4197   0.06851   0.06233  -0.0491  0.0299  1.0000  -6.0408   0.0000   0.0000   0.0000   0.2614


