xflr5 v6.59

 Calculated polar for: revR_05_revT

 1 1 Reynolds number fixed          Mach number fixed         

 xtrf =   1.000 (top)        1.000 (bottom)
 Mach =   0.000     Re =     0.150 e 6     Ncrit =   9.000

  alpha     CL        CD       CDp       Cm    Top Xtr Bot Xtr   Cpmin    Chinge    XCp    
 ------- -------- --------- --------- -------- ------- ------- -------- --------- ---------
  -5.000  -0.3785   0.02073   0.01279  -0.0475  0.9578  0.0770  -2.8563   0.0000   0.0000   0.0000   0.1177
  -4.500  -0.3071   0.01868   0.01066  -0.0508  0.9467  0.0978  -2.5029   0.0000   0.0000   0.0000   0.0775
  -4.000  -0.2423   0.01703   0.00922  -0.0531  0.9352  0.1496  -2.1416   0.0000   0.0000   0.0000   0.0229
  -3.500  -0.1724   0.01547   0.00828  -0.0566  0.9232  0.2791  -1.7473   0.0000   0.0000   0.0000  -0.0873
  -3.000  -0.1072   0.01415   0.00784  -0.0588  0.9118  0.4832  -1.3854   0.0000   0.0000   0.0000  -0.3108
  -2.500  -0.0467   0.01348   0.00789  -0.0584  0.8989  0.6833  -1.1109   0.0000   0.0000   0.0000  -1.0227
  -2.000   0.0085   0.01348   0.00799  -0.0565  0.8841  0.7791  -0.9008   0.0000   0.0000   0.0000   6.9806
  -1.500   0.0717   0.01335   0.00781  -0.0555  0.8716  0.8473  -0.6850   0.0000   0.0000   0.0000   1.0316
  -1.000   0.1213   0.01344   0.00785  -0.0523  0.8538  0.8963  -0.5205   0.0000   0.0000   0.0000   0.6843
  -0.500   0.2058   0.01341   0.00767  -0.0561  0.8402  0.9337  -0.5297   0.0000   0.0000   0.0000   0.5227
   0.000   0.3149   0.01322   0.00729  -0.0653  0.8248  0.9584  -0.6077   0.0000   0.0000   0.0000   0.4564
   0.500   0.4188   0.01298   0.00692  -0.0745  0.8052  0.9811  -0.6897   0.0000   0.0000   0.0000   0.4263
   1.000   0.5105   0.01261   0.00644  -0.0818  0.7823  1.0000  -0.7691   0.0000   0.0000   0.0000   0.4081
   1.500   0.5429   0.01247   0.00622  -0.0777  0.7575  1.0000  -0.8183   0.0000   0.0000   0.0000   0.3905
   2.000   0.5757   0.01242   0.00608  -0.0734  0.7325  1.0000  -0.8688   0.0000   0.0000   0.0000   0.3746
   2.500   0.6098   0.01239   0.00596  -0.0692  0.7062  1.0000  -0.9301   0.0000   0.0000   0.0000   0.3600
   3.000   0.6478   0.01248   0.00595  -0.0655  0.6800  1.0000  -1.0002   0.0000   0.0000   0.0000   0.3473
   3.500   0.6886   0.01264   0.00604  -0.0624  0.6508  1.0000  -1.0941   0.0000   0.0000   0.0000   0.3362
   4.000   0.7319   0.01283   0.00619  -0.0596  0.6178  1.0000  -1.2005   0.0000   0.0000   0.0000   0.3266
   4.500   0.7789   0.01310   0.00635  -0.0575  0.5850  1.0000  -1.3633   0.0000   0.0000   0.0000   0.3185
   5.000   0.8242   0.01347   0.00667  -0.0552  0.5470  1.0000  -1.6139   0.0000   0.0000   0.0000   0.3112
   5.500   0.8705   0.01397   0.00704  -0.0531  0.5089  1.0000  -1.9358   0.0000   0.0000   0.0000   0.3047
   6.000   0.9138   0.01451   0.00750  -0.0506  0.4651  1.0000  -2.2635   0.0000   0.0000   0.0000   0.2985
   6.500   0.9564   0.01517   0.00814  -0.0481  0.4225  1.0000  -2.6016   0.0000   0.0000   0.0000   0.2929
   7.000   0.9957   0.01593   0.00881  -0.0452  0.3750  1.0000  -2.9424   0.0000   0.0000   0.0000   0.2874
   7.500   1.0323   0.01683   0.00967  -0.0420  0.3262  1.0000  -3.2830   0.0000   0.0000   0.0000   0.2821
   8.000   1.0640   0.01796   0.01065  -0.0381  0.2740  1.0000  -3.6130   0.0000   0.0000   0.0000   0.2767
   8.500   1.0904   0.01937   0.01192  -0.0337  0.2185  1.0000  -3.9233   0.0000   0.0000   0.0000   0.2711
   9.000   1.1067   0.02128   0.01357  -0.0280  0.1609  1.0000  -4.1878   0.0000   0.0000   0.0000   0.2649
   9.500   1.1141   0.02350   0.01563  -0.0212  0.1188  1.0000  -4.4052   0.0000   0.0000   0.0000   0.2579
  10.000   1.1199   0.02605   0.01801  -0.0151  0.0902  1.0000  -4.6135   0.0000   0.0000   0.0000   0.2517
  10.500   1.1288   0.02878   0.02078  -0.0102  0.0709  1.0000  -4.8279   0.0000   0.0000   0.0000   0.2465
  11.000   1.1368   0.03201   0.02414  -0.0059  0.0560  1.0000  -4.9970   0.0000   0.0000   0.0000   0.2419
  11.500   1.1413   0.03632   0.02851  -0.0020  0.0454  1.0000  -5.1045   0.0000   0.0000   0.0000   0.2377
  12.000   1.1555   0.04007   0.03250   0.0008  0.0398  1.0000  -5.2486   0.0000   0.0000   0.0000   0.2345
  12.500   1.1684   0.04427   0.03687   0.0030  0.0364  1.0000  -5.4081   0.0000   0.0000   0.0000   0.2318
  13.000   1.1809   0.05026   0.04322   0.0048  0.0341  1.0000  -5.5028   0.0000   0.0000   0.0000   0.2296
  13.500   1.1729   0.05847   0.05199   0.0062  0.0332  1.0000  -5.4700   0.0000   0.0000   0.0000   0.2276
  14.000   1.1496   0.06732   0.06134   0.0061  0.0330  1.0000  -5.3976   0.0000   0.0000   0.0000   0.2267
  14.500   1.1207   0.07694   0.07140   0.0040  0.0331  1.0000  -5.3078   0.0000   0.0000   0.0000   0.2275
  15.000   1.0889   0.08772   0.08256  -0.0003  0.0333  1.0000  -5.1958   0.0000   0.0000   0.0000   0.2305


