xflr5 v6.59

 Calculated polar for: revR_35_revT

 1 1 Reynolds number fixed          Mach number fixed         

 xtrf =   1.000 (top)        1.000 (bottom)
 Mach =   0.000     Re =     0.465 e 6     Ncrit =   9.000

  alpha     CL        CD       CDp       Cm    Top Xtr Bot Xtr   Cpmin    Chinge    XCp    
 ------- -------- --------- --------- -------- ------- ------- -------- --------- ---------
  -5.000  -0.1307   0.01127   0.00485  -0.0934  0.8334  0.0513  -2.5205   0.0000   0.0000   0.0000  -0.4838
  -4.500  -0.0763   0.01056   0.00404  -0.0931  0.8217  0.0687  -2.1650   0.0000   0.0000   0.0000  -0.9989
  -4.000  -0.0215   0.01000   0.00352  -0.0930  0.8102  0.1004  -1.8201   0.0000   0.0000   0.0000  -4.1605
  -3.500   0.0335   0.00950   0.00318  -0.0930  0.7993  0.1587  -1.4949   0.0000   0.0000   0.0000   3.0695
  -3.000   0.0885   0.00901   0.00291  -0.0930  0.7878  0.2304  -1.2500   0.0000   0.0000   0.0000   1.3155
  -2.500   0.1435   0.00858   0.00270  -0.0930  0.7759  0.3233  -1.0290   0.0000   0.0000   0.0000   0.9048
  -2.000   0.1984   0.00812   0.00255  -0.0929  0.7644  0.4285  -0.8181   0.0000   0.0000   0.0000   0.7219
  -1.500   0.2524   0.00767   0.00249  -0.0926  0.7525  0.5725  -0.6227   0.0000   0.0000   0.0000   0.6184
  -1.000   0.3063   0.00740   0.00249  -0.0919  0.7392  0.6773  -0.6190   0.0000   0.0000   0.0000   0.5504
  -0.500   0.3603   0.00734   0.00253  -0.0911  0.7261  0.7499  -0.6611   0.0000   0.0000   0.0000   0.5022
   0.000   0.4144   0.00730   0.00256  -0.0903  0.7126  0.7970  -0.7065   0.0000   0.0000   0.0000   0.4665
   0.500   0.4677   0.00729   0.00258  -0.0893  0.6970  0.8334  -0.7553   0.0000   0.0000   0.0000   0.4389
   1.000   0.5197   0.00733   0.00260  -0.0880  0.6812  0.8716  -0.8064   0.0000   0.0000   0.0000   0.4167
   1.500   0.5694   0.00728   0.00260  -0.0862  0.6633  0.9070  -0.8624   0.0000   0.0000   0.0000   0.3982
   2.000   0.6202   0.00725   0.00259  -0.0846  0.6438  0.9503  -0.9197   0.0000   0.0000   0.0000   0.3828
   2.500   0.6918   0.00730   0.00257  -0.0879  0.6208  1.0000  -0.9955   0.0000   0.0000   0.0000   0.3730
   3.000   0.7473   0.00751   0.00268  -0.0881  0.5981  1.0000  -1.0694   0.0000   0.0000   0.0000   0.3633
   3.500   0.8018   0.00778   0.00283  -0.0880  0.5710  1.0000  -1.1483   0.0000   0.0000   0.0000   0.3547
   4.000   0.8554   0.00813   0.00305  -0.0877  0.5422  1.0000  -1.2397   0.0000   0.0000   0.0000   0.3469
   4.500   0.9087   0.00849   0.00333  -0.0874  0.5125  1.0000  -1.3479   0.0000   0.0000   0.0000   0.3400
   5.000   0.9611   0.00892   0.00366  -0.0869  0.4791  1.0000  -1.4800   0.0000   0.0000   0.0000   0.3338
   5.500   1.0119   0.00946   0.00406  -0.0862  0.4441  1.0000  -1.6335   0.0000   0.0000   0.0000   0.3280
   6.000   1.0629   0.01000   0.00452  -0.0856  0.4086  1.0000  -1.9091   0.0000   0.0000   0.0000   0.3227
   6.500   1.1111   0.01072   0.00507  -0.0845  0.3638  1.0000  -2.2296   0.0000   0.0000   0.0000   0.3177
   7.000   1.1580   0.01153   0.00571  -0.0834  0.3193  1.0000  -2.5732   0.0000   0.0000   0.0000   0.3130
   7.500   1.2021   0.01254   0.00649  -0.0819  0.2670  1.0000  -2.9255   0.0000   0.0000   0.0000   0.3085
   8.000   1.2458   0.01355   0.00733  -0.0804  0.2261  1.0000  -3.2900   0.0000   0.0000   0.0000   0.3042
   8.500   1.2865   0.01472   0.00832  -0.0786  0.1859  1.0000  -3.6565   0.0000   0.0000   0.0000   0.3000
   9.000   1.3237   0.01606   0.00949  -0.0762  0.1446  1.0000  -4.0200   0.0000   0.0000   0.0000   0.2958
   9.500   1.3552   0.01756   0.01080  -0.0731  0.1070  1.0000  -4.3705   0.0000   0.0000   0.0000   0.2914
  10.000   1.3824   0.01923   0.01234  -0.0695  0.0800  1.0000  -4.7087   0.0000   0.0000   0.0000   0.2870
  10.500   1.4075   0.02103   0.01409  -0.0660  0.0603  1.0000  -5.0416   0.0000   0.0000   0.0000   0.2828
  11.000   1.4307   0.02306   0.01612  -0.0627  0.0468  1.0000  -5.3672   0.0000   0.0000   0.0000   0.2790
  11.500   1.4511   0.02543   0.01859  -0.0595  0.0353  1.0000  -5.6711   0.0000   0.0000   0.0000   0.2753
  12.000   1.4619   0.02875   0.02196  -0.0561  0.0251  1.0000  -5.8952   0.0000   0.0000   0.0000   0.2717
  12.500   1.4692   0.03259   0.02588  -0.0530  0.0201  1.0000  -6.0941   0.0000   0.0000   0.0000   0.2685
  13.000   1.4550   0.03874   0.03234  -0.0494  0.0172  1.0000  -6.1274   0.0000   0.0000   0.0000   0.2655
  13.500   1.4628   0.04305   0.03685  -0.0477  0.0167  1.0000  -6.3538   0.0000   0.0000   0.0000   0.2632
  14.000   1.4653   0.04810   0.04212  -0.0464  0.0161  1.0000  -6.5490   0.0000   0.0000   0.0000   0.2612
  14.500   1.4636   0.05393   0.04818  -0.0455  0.0156  1.0000  -6.7163   0.0000   0.0000   0.0000   0.2596
  15.000   1.4597   0.06041   0.05489  -0.0453  0.0151  1.0000  -6.8682   0.0000   0.0000   0.0000   0.2584


