xflr5 v6.59

 Calculated polar for: revR_95_revT

 1 1 Reynolds number fixed          Mach number fixed         

 xtrf =   1.000 (top)        1.000 (bottom)
 Mach =   0.000     Re =     0.030 e 6     Ncrit =   9.000

  alpha     CL        CD       CDp       Cm    Top Xtr Bot Xtr   Cpmin    Chinge    XCp    
 ------- -------- --------- --------- -------- ------- ------- -------- --------- ---------
  -5.000  -0.3162   0.10386   0.09686   0.0176  1.0000  0.6543  -1.1661   0.0000   0.0000   0.0000   0.2951
  -4.500  -0.1929   0.09054   0.08328   0.0095  1.0000  0.8766  -1.0347   0.0000   0.0000   0.0000   0.2823
  -4.000  -0.1287   0.08202   0.07461  -0.0016  1.0000  0.9410  -1.0021   0.0000   0.0000   0.0000   0.2140
  -3.500  -0.2311   0.08479   0.07780   0.0184  1.0000  0.8542  -1.0827   0.0000   0.0000   0.0000   0.3180
  -3.000  -0.3451   0.06984   0.06229  -0.0437  1.0000  0.2582  -1.7401   0.0000   0.0000   0.0000   0.1167
  -2.500  -0.2646   0.06088   0.05247  -0.0602  1.0000  0.2595  -1.7262   0.0000   0.0000   0.0000   0.0144
  -2.000  -0.1877   0.05511   0.04586  -0.0714  1.0000  0.2818  -1.6683   0.0000   0.0000   0.0000  -0.1406
  -1.500  -0.1203   0.05200   0.04209  -0.0777  1.0000  0.3242  -1.5809   0.0000   0.0000   0.0000  -0.4103
  -1.000  -0.0618   0.05049   0.04032  -0.0804  1.0000  0.3988  -1.4668   0.0000   0.0000   0.0000  -1.0760
  -0.500  -0.0067   0.04977   0.03968  -0.0811  1.0000  0.5256  -1.3385   0.0000   0.0000   0.0000  -12.0118
   0.000   0.0228   0.04930   0.03998  -0.0741  1.0000  0.7157  -1.2271   0.0000   0.0000   0.0000   3.5457
   0.500   0.0569   0.04757   0.03797  -0.0755  1.0000  1.0000  -1.1289   0.0000   0.0000   0.0000   1.5873
   1.000   0.1109   0.05047   0.03975  -0.0806  1.0000  1.0000  -0.9507   0.0000   0.0000   0.0000   0.9794
   1.500   0.1536   0.05339   0.04201  -0.0830  1.0000  1.0000  -0.7909   0.0000   0.0000   0.0000   0.7899
   2.000   0.1927   0.05650   0.04461  -0.0848  1.0000  1.0000  -0.6411   0.0000   0.0000   0.0000   0.6877
   2.500   0.2294   0.05981   0.04753  -0.0863  1.0000  1.0000  -0.5671   0.0000   0.0000   0.0000   0.6227
   3.000   0.2642   0.06332   0.05074  -0.0878  1.0000  1.0000  -0.5873   0.0000   0.0000   0.0000   0.5774
   3.500   0.2973   0.06706   0.05424  -0.0891  1.0000  1.0000  -0.6077   0.0000   0.0000   0.0000   0.5440
   4.000   0.3290   0.07102   0.05802  -0.0904  1.0000  1.0000  -0.6287   0.0000   0.0000   0.0000   0.5184
   4.500   0.3593   0.07521   0.06208  -0.0918  1.0000  1.0000  -0.6467   0.0000   0.0000   0.0000   0.4982
   5.000   0.3884   0.07964   0.06642  -0.0932  1.0000  1.0000  -0.6628   0.0000   0.0000   0.0000   0.4819
   5.500   0.4162   0.08430   0.07102  -0.0946  1.0000  1.0000  -0.6809   0.0000   0.0000   0.0000   0.4685
   6.000   0.4846   0.09277   0.07946  -0.1041  0.9728  1.0000  -0.7308   0.0000   0.0000   0.0000   0.4556
   6.500   0.5198   0.09818   0.08492  -0.1071  0.9413  1.0000  -0.7558   0.0000   0.0000   0.0000   0.4464
   7.000   0.5627   0.10444   0.09125  -0.1112  0.9060  1.0000  -0.7888   0.0000   0.0000   0.0000   0.4373
   8.000   0.6430   0.11813   0.10512  -0.1179  0.8474  1.0000  -0.8640   0.0000   0.0000   0.0000   0.4220
   8.500   0.6672   0.12358   0.11069  -0.1189  0.8220  1.0000  -0.8899   0.0000   0.0000   0.0000   0.4162
   9.000   0.6956   0.12975   0.11701  -0.1204  0.7952  1.0000  -0.9197   0.0000   0.0000   0.0000   0.4106
   9.500   0.7152   0.13507   0.12248  -0.1210  0.7709  1.0000  -0.9454   0.0000   0.0000   0.0000   0.4059
  10.000   0.7360   0.14075   0.12832  -0.1218  0.7465  1.0000  -0.9741   0.0000   0.0000   0.0000   0.4017
  10.500   0.7560   0.14657   0.13431  -0.1227  0.7230  1.0000  -1.0048   0.0000   0.0000   0.0000   0.3979
  11.000   0.7759   0.15288   0.14079  -0.1240  0.7029  1.0000  -1.0316   0.0000   0.0000   0.0000   0.3947
  11.500   0.7984   0.15920   0.14730  -0.1254  0.6779  1.0000  -1.0645   0.0000   0.0000   0.0000   0.3913
  12.000   0.8290   0.16800   0.15631  -0.1281  0.6588  1.0000  -1.1130   0.0000   0.0000   0.0000   0.3881
  12.500   0.8482   0.17396   0.16247  -0.1293  0.6331  1.0000  -1.1525   0.0000   0.0000   0.0000   0.3852
  13.000   0.8855   0.18485   0.17361  -0.1325  0.6105  1.0000  -1.2139   0.0000   0.0000   0.0000   0.3817
  13.500   0.9078   0.19218   0.18116  -0.1340  0.5855  1.0000  -1.2575   0.0000   0.0000   0.0000   0.3790
  14.000   0.9113   0.19416   0.18332  -0.1343  0.5625  1.0000  -1.2703   0.0000   0.0000   0.0000   0.3779
  14.500   0.9162   0.19776   0.18705  -0.1357  0.5432  1.0000  -1.2853   0.0000   0.0000   0.0000   0.3778
  15.000   0.9350   0.20416   0.19366  -0.1376  0.5182  1.0000  -1.3359   0.0000   0.0000   0.0000   0.3760


