xflr5 v6.59

 Calculated polar for: revR_25_revT

 1 1 Reynolds number fixed          Mach number fixed         

 xtrf =   1.000 (top)        1.000 (bottom)
 Mach =   0.000     Re =     0.380 e 6     Ncrit =   9.000

  alpha     CL        CD       CDp       Cm    Top Xtr Bot Xtr   Cpmin    Chinge    XCp    
 ------- -------- --------- --------- -------- ------- ------- -------- --------- ---------
  -5.000  -0.1679   0.01211   0.00551  -0.0854  0.8650  0.0552  -2.5006   0.0000   0.0000   0.0000  -0.2731
  -4.500  -0.1152   0.01121   0.00450  -0.0847  0.8514  0.0766  -2.1663   0.0000   0.0000   0.0000  -0.5043
  -4.000  -0.0619   0.01051   0.00393  -0.0844  0.8381  0.1213  -1.8237   0.0000   0.0000   0.0000  -1.1438
  -3.500  -0.0077   0.00998   0.00354  -0.0842  0.8256  0.1858  -1.4969   0.0000   0.0000   0.0000  -10.9364
  -3.000   0.0461   0.00943   0.00328  -0.0840  0.8129  0.2731  -1.2364   0.0000   0.0000   0.0000   2.1005
  -2.500   0.0997   0.00888   0.00304  -0.0837  0.7998  0.3918  -1.0227   0.0000   0.0000   0.0000   1.0989
  -2.000   0.1527   0.00833   0.00293  -0.0832  0.7868  0.5250  -0.8193   0.0000   0.0000   0.0000   0.7996
  -1.500   0.2049   0.00798   0.00294  -0.0821  0.7740  0.6609  -0.6258   0.0000   0.0000   0.0000   0.6529
  -1.000   0.2578   0.00784   0.00295  -0.0810  0.7595  0.7374  -0.5761   0.0000   0.0000   0.0000   0.5646
  -0.500   0.3108   0.00782   0.00297  -0.0798  0.7449  0.7900  -0.6194   0.0000   0.0000   0.0000   0.5063
   0.000   0.3637   0.00784   0.00296  -0.0786  0.7307  0.8301  -0.6641   0.0000   0.0000   0.0000   0.4647
   0.500   0.4147   0.00780   0.00296  -0.0769  0.7137  0.8669  -0.7118   0.0000   0.0000   0.0000   0.4336
   1.000   0.4643   0.00778   0.00296  -0.0750  0.6968  0.9018  -0.7620   0.0000   0.0000   0.0000   0.4090
   1.500   0.5136   0.00776   0.00290  -0.0729  0.6786  0.9410  -0.8169   0.0000   0.0000   0.0000   0.3889
   2.000   0.5822   0.00776   0.00283  -0.0752  0.6573  0.9778  -0.8865   0.0000   0.0000   0.0000   0.3758
   2.500   0.6514   0.00783   0.00282  -0.0783  0.6335  1.0000  -0.9643   0.0000   0.0000   0.0000   0.3663
   3.000   0.7040   0.00803   0.00292  -0.0779  0.6088  1.0000  -1.0365   0.0000   0.0000   0.0000   0.3563
   3.500   0.7575   0.00827   0.00307  -0.0776  0.5805  1.0000  -1.1192   0.0000   0.0000   0.0000   0.3476
   4.000   0.8106   0.00858   0.00328  -0.0772  0.5500  1.0000  -1.2214   0.0000   0.0000   0.0000   0.3399
   4.500   0.8627   0.00899   0.00356  -0.0766  0.5179  1.0000  -1.3354   0.0000   0.0000   0.0000   0.3329
   5.000   0.9147   0.00941   0.00390  -0.0760  0.4832  1.0000  -1.4862   0.0000   0.0000   0.0000   0.3267
   5.500   0.9650   0.00997   0.00431  -0.0752  0.4462  1.0000  -1.7333   0.0000   0.0000   0.0000   0.3210
   6.000   1.0156   0.01051   0.00479  -0.0745  0.4088  1.0000  -2.0609   0.0000   0.0000   0.0000   0.3158
   6.500   1.0634   0.01125   0.00535  -0.0734  0.3609  1.0000  -2.3957   0.0000   0.0000   0.0000   0.3109
   7.000   1.1096   0.01211   0.00604  -0.0722  0.3115  1.0000  -2.7480   0.0000   0.0000   0.0000   0.3063
   7.500   1.1535   0.01317   0.00684  -0.0707  0.2586  1.0000  -3.1151   0.0000   0.0000   0.0000   0.3019
   8.000   1.1969   0.01424   0.00773  -0.0692  0.2134  1.0000  -3.4943   0.0000   0.0000   0.0000   0.2978
   8.500   1.2378   0.01545   0.00878  -0.0674  0.1696  1.0000  -3.8761   0.0000   0.0000   0.0000   0.2938
   9.000   1.2737   0.01698   0.01009  -0.0650  0.1234  1.0000  -4.2473   0.0000   0.0000   0.0000   0.2897
   9.500   1.3068   0.01852   0.01149  -0.0622  0.0897  1.0000  -4.6146   0.0000   0.0000   0.0000   0.2856
  10.000   1.3352   0.02017   0.01307  -0.0589  0.0664  1.0000  -4.9652   0.0000   0.0000   0.0000   0.2813
  10.500   1.3604   0.02203   0.01491  -0.0554  0.0494  1.0000  -5.2991   0.0000   0.0000   0.0000   0.2771
  11.000   1.3800   0.02438   0.01728  -0.0518  0.0352  1.0000  -5.5882   0.0000   0.0000   0.0000   0.2732
  11.500   1.3875   0.02788   0.02085  -0.0477  0.0243  1.0000  -5.7598   0.0000   0.0000   0.0000   0.2691
  12.000   1.3996   0.03124   0.02441  -0.0447  0.0209  1.0000  -5.9793   0.0000   0.0000   0.0000   0.2659
  12.500   1.4035   0.03558   0.02892  -0.0420  0.0189  1.0000  -6.1559   0.0000   0.0000   0.0000   0.2629
  13.000   1.3967   0.04125   0.03486  -0.0394  0.0176  1.0000  -6.2569   0.0000   0.0000   0.0000   0.2603
  13.500   1.3823   0.04800   0.04192  -0.0372  0.0168  1.0000  -6.2988   0.0000   0.0000   0.0000   0.2580
  14.000   1.3824   0.05355   0.04770  -0.0362  0.0164  1.0000  -6.4622   0.0000   0.0000   0.0000   0.2563
  14.500   1.3844   0.05919   0.05356  -0.0359  0.0161  1.0000  -6.6498   0.0000   0.0000   0.0000   0.2550
  15.000   1.3832   0.06557   0.06019  -0.0361  0.0157  1.0000  -6.8107   0.0000   0.0000   0.0000   0.2542


