xflr5 v6.59

 Calculated polar for: revR_35_revT

 1 1 Reynolds number fixed          Mach number fixed         

 xtrf =   1.000 (top)        1.000 (bottom)
 Mach =   0.000     Re =     0.045 e 6     Ncrit =   9.000

  alpha     CL        CD       CDp       Cm    Top Xtr Bot Xtr   Cpmin    Chinge    XCp    
 ------- -------- --------- --------- -------- ------- ------- -------- --------- ---------
  -5.000  -0.4497   0.04969   0.04200  -0.0446  1.0000  0.1655  -2.3842   0.0000   0.0000   0.0000   0.1452
  -4.500  -0.3992   0.04176   0.03295  -0.0490  1.0000  0.1668  -2.3673   0.0000   0.0000   0.0000   0.1213
  -4.000  -0.3502   0.03739   0.02806  -0.0506  1.0000  0.1874  -2.2180   0.0000   0.0000   0.0000   0.0994
  -3.500  -0.2957   0.03360   0.02354  -0.0520  1.0000  0.2134  -2.0681   0.0000   0.0000   0.0000   0.0674
  -3.000  -0.2452   0.03121   0.02097  -0.0524  1.0000  0.2678  -1.8860   0.0000   0.0000   0.0000   0.0294
  -2.500  -0.1962   0.02937   0.01963  -0.0520  1.0000  0.3740  -1.6756   0.0000   0.0000   0.0000  -0.0229
  -2.000  -0.1514   0.02795   0.01940  -0.0493  1.0000  0.5861  -1.4627   0.0000   0.0000   0.0000  -0.0845
  -1.500  -0.1505   0.02737   0.01982  -0.0347  1.0000  0.8445  -1.3557   0.0000   0.0000   0.0000   0.0119
  -1.000  -0.1083   0.02707   0.01888  -0.0370  1.0000  1.0000  -1.1897   0.0000   0.0000   0.0000  -0.0998
  -0.500  -0.0578   0.02842   0.01948  -0.0404  1.0000  1.0000  -1.0028   0.0000   0.0000   0.0000  -0.4594
   0.500   0.1037   0.03348   0.02336  -0.0571  0.9638  1.0000  -0.5516   0.0000   0.0000   0.0000   0.8011
   1.000   0.1782   0.03593   0.02545  -0.0637  0.9377  1.0000  -0.5190   0.0000   0.0000   0.0000   0.6060
   1.500   0.2468   0.03835   0.02762  -0.0690  0.9108  1.0000  -0.5674   0.0000   0.0000   0.0000   0.5270
   2.000   0.3126   0.04078   0.02987  -0.0734  0.8828  1.0000  -0.6181   0.0000   0.0000   0.0000   0.4816
   2.500   0.3781   0.04325   0.03224  -0.0774  0.8548  1.0000  -0.6712   0.0000   0.0000   0.0000   0.4510
   3.000   0.4502   0.04573   0.03466  -0.0818  0.8264  1.0000  -0.7347   0.0000   0.0000   0.0000   0.4274
   3.500   0.4940   0.04817   0.03710  -0.0821  0.7966  1.0000  -0.7803   0.0000   0.0000   0.0000   0.4115
   4.000   0.5383   0.05070   0.03967  -0.0825  0.7665  1.0000  -0.8294   0.0000   0.0000   0.0000   0.3980
   4.500   0.5939   0.05304   0.04210  -0.0837  0.7363  1.0000  -0.8963   0.0000   0.0000   0.0000   0.3852
   5.000   0.6619   0.05496   0.04417  -0.0854  0.7075  1.0000  -0.9868   0.0000   0.0000   0.0000   0.3729
   5.500   0.6855   0.05823   0.04755  -0.0835  0.6763  1.0000  -1.0333   0.0000   0.0000   0.0000   0.3652
   6.000   0.7229   0.06108   0.05056  -0.0826  0.6452  1.0000  -1.1049   0.0000   0.0000   0.0000   0.3571
   6.500   0.7782   0.06299   0.05270  -0.0822  0.6156  1.0000  -1.2176   0.0000   0.0000   0.0000   0.3480
   7.000   0.8260   0.06511   0.05507  -0.0809  0.5858  1.0000  -1.3407   0.0000   0.0000   0.0000   0.3398
   7.500   0.8338   0.07002   0.06015  -0.0788  0.5533  1.0000  -1.3932   0.0000   0.0000   0.0000   0.3357
   8.000   0.8791   0.07211   0.06253  -0.0769  0.5225  1.0000  -1.5474   0.0000   0.0000   0.0000   0.3282
   8.500   0.9440   0.07169   0.06249  -0.0739  0.4913  1.0000  -1.8452   0.0000   0.0000   0.0000   0.3183
   9.000   0.9226   0.08027   0.07117  -0.0726  0.4584  1.0000  -1.8594   0.0000   0.0000   0.0000   0.3181
   9.500   1.1120   0.06124   0.05297  -0.0621  0.4187  1.0000  -2.7820   0.0000   0.0000   0.0000   0.2944
  10.000   0.9898   0.08497   0.07646  -0.0661  0.3921  1.0000  -2.3402   0.0000   0.0000   0.0000   0.3048
  10.500   0.9687   0.09527   0.08687  -0.0665  0.3642  1.0000  -2.3263   0.0000   0.0000   0.0000   0.3061
  11.000   1.0719   0.08427   0.07644  -0.0554  0.3207  1.0000  -2.9383   0.0000   0.0000   0.0000   0.2881
  11.500   1.0188   0.10126   0.09339  -0.0597  0.2987  1.0000  -2.7416   0.0000   0.0000   0.0000   0.2945
  12.000   0.9944   0.11295   0.10512  -0.0617  0.2746  1.0000  -2.6796   0.0000   0.0000   0.0000   0.2973
  12.500   0.9398   0.13188   0.12395  -0.0694  0.2674  1.0000  -2.4005   0.0000   0.0000   0.0000   0.3089
  13.000   1.0007   0.12907   0.12150  -0.0616  0.2320  1.0000  -2.7926   0.0000   0.0000   0.0000   0.2955
  13.500   0.9483   0.14900   0.14130  -0.0714  0.2299  1.0000  -2.4716   0.0000   0.0000   0.0000   0.3091
  14.000   0.9377   0.16332   0.15567  -0.0770  0.2310  1.0000  -2.3505   0.0000   0.0000   0.0000   0.3155


