xflr5 v6.59

 Calculated polar for: revR_90_revT

 1 1 Reynolds number fixed          Mach number fixed         

 xtrf =   1.000 (top)        1.000 (bottom)
 Mach =   0.000     Re =     0.455 e 6     Ncrit =   9.000

  alpha     CL        CD       CDp       Cm    Top Xtr Bot Xtr   Cpmin    Chinge    XCp    
 ------- -------- --------- --------- -------- ------- ------- -------- --------- ---------
  -5.000   0.1004   0.01249   0.00598  -0.1451  0.7800  0.0442  -2.3394   0.0000   0.0000   0.0000   1.7312
  -4.500   0.1570   0.01157   0.00499  -0.1455  0.7729  0.0544  -2.0753   0.0000   0.0000   0.0000   1.1972
  -4.000   0.2145   0.01109   0.00444  -0.1460  0.7642  0.0735  -1.8152   0.0000   0.0000   0.0000   0.9434
  -3.500   0.2711   0.01052   0.00399  -0.1463  0.7573  0.1072  -1.5614   0.0000   0.0000   0.0000   0.7985
  -3.000   0.3283   0.01011   0.00373  -0.1468  0.7498  0.1595  -1.3130   0.0000   0.0000   0.0000   0.7030
  -2.500   0.3860   0.00981   0.00353  -0.1473  0.7418  0.2221  -1.0765   0.0000   0.0000   0.0000   0.6354
  -2.000   0.4431   0.00956   0.00346  -0.1478  0.7337  0.2905  -0.8574   0.0000   0.0000   0.0000   0.5858
  -1.500   0.5002   0.00925   0.00335  -0.1481  0.7244  0.3715  -0.8121   0.0000   0.0000   0.0000   0.5472
  -1.000   0.5578   0.00901   0.00328  -0.1485  0.7156  0.4669  -0.8542   0.0000   0.0000   0.0000   0.5163
  -0.500   0.6142   0.00877   0.00339  -0.1487  0.7071  0.5846  -0.8984   0.0000   0.0000   0.0000   0.4914
   0.000   0.6694   0.00854   0.00342  -0.1484  0.6964  0.6918  -0.9426   0.0000   0.0000   0.0000   0.4701
   0.500   0.7243   0.00856   0.00352  -0.1479  0.6859  0.7714  -0.9868   0.0000   0.0000   0.0000   0.4519
   1.000   0.7774   0.00850   0.00360  -0.1470  0.6762  0.8235  -1.0367   0.0000   0.0000   0.0000   0.4362
   1.500   0.8270   0.00843   0.00356  -0.1453  0.6636  0.8804  -1.0892   0.0000   0.0000   0.0000   0.4220
   2.000   0.8739   0.00829   0.00354  -0.1429  0.6510  0.9563  -1.1401   0.0000   0.0000   0.0000   0.4092
   2.500   0.9351   0.00841   0.00350  -0.1442  0.6364  1.0000  -1.2095   0.0000   0.0000   0.0000   0.3992
   3.000   0.9920   0.00856   0.00364  -0.1446  0.6217  1.0000  -1.2778   0.0000   0.0000   0.0000   0.3902
   3.500   1.0474   0.00878   0.00377  -0.1447  0.6036  1.0000  -1.3460   0.0000   0.0000   0.0000   0.3819
   4.500   1.1560   0.00935   0.00421  -0.1445  0.5670  1.0000  -1.4990   0.0000   0.0000   0.0000   0.3674
   5.000   1.2082   0.00971   0.00452  -0.1440  0.5448  1.0000  -1.5818   0.0000   0.0000   0.0000   0.3609
   5.500   1.2589   0.01015   0.00489  -0.1433  0.5210  1.0000  -1.6800   0.0000   0.0000   0.0000   0.3549
   6.000   1.3084   0.01065   0.00533  -0.1424  0.4976  1.0000  -1.7858   0.0000   0.0000   0.0000   0.3492
   6.500   1.3552   0.01125   0.00585  -0.1411  0.4697  1.0000  -1.9100   0.0000   0.0000   0.0000   0.3437
   7.000   1.4003   0.01192   0.00645  -0.1396  0.4433  1.0000  -2.0394   0.0000   0.0000   0.0000   0.3385
   7.500   1.4409   0.01275   0.00717  -0.1373  0.4120  1.0000  -2.1894   0.0000   0.0000   0.0000   0.3334
   8.000   1.4783   0.01365   0.00799  -0.1345  0.3840  1.0000  -2.3371   0.0000   0.0000   0.0000   0.3283
   8.500   1.5097   0.01472   0.00899  -0.1308  0.3551  1.0000  -2.4959   0.0000   0.0000   0.0000   0.3232
   9.000   1.5397   0.01591   0.01014  -0.1272  0.3266  1.0000  -2.7099   0.0000   0.0000   0.0000   0.3183
   9.500   1.5668   0.01735   0.01153  -0.1235  0.3008  1.0000  -2.9774   0.0000   0.0000   0.0000   0.3136
  10.000   1.5917   0.01904   0.01320  -0.1198  0.2755  1.0000  -3.2452   0.0000   0.0000   0.0000   0.3092
  10.500   1.6125   0.02112   0.01523  -0.1161  0.2477  1.0000  -3.5113   0.0000   0.0000   0.0000   0.3050
  11.000   1.6295   0.02361   0.01763  -0.1123  0.2190  1.0000  -3.7743   0.0000   0.0000   0.0000   0.3010
  11.500   1.6437   0.02645   0.02040  -0.1086  0.1923  1.0000  -4.0319   0.0000   0.0000   0.0000   0.2972
  12.000   1.6552   0.02963   0.02353  -0.1049  0.1669  1.0000  -4.2841   0.0000   0.0000   0.0000   0.2936
  12.500   1.6635   0.03318   0.02704  -0.1014  0.1439  1.0000  -4.5278   0.0000   0.0000   0.0000   0.2901
  13.000   1.6700   0.03702   0.03085  -0.0981  0.1235  1.0000  -4.7673   0.0000   0.0000   0.0000   0.2869
  13.500   1.6757   0.04116   0.03500  -0.0952  0.1062  1.0000  -5.0058   0.0000   0.0000   0.0000   0.2839
  14.000   1.6791   0.04570   0.03958  -0.0925  0.0918  1.0000  -5.2359   0.0000   0.0000   0.0000   0.2811
  14.500   1.6769   0.05108   0.04497  -0.0901  0.0777  1.0000  -5.4418   0.0000   0.0000   0.0000   0.2786
  15.000   1.6807   0.05604   0.05004  -0.0883  0.0685  1.0000  -5.6766   0.0000   0.0000   0.0000   0.2763


