xflr5 v6.59

 Calculated polar for: revR_90_revT

 1 1 Reynolds number fixed          Mach number fixed         

 xtrf =   1.000 (top)        1.000 (bottom)
 Mach =   0.000     Re =     0.245 e 6     Ncrit =   9.000

  alpha     CL        CD       CDp       Cm    Top Xtr Bot Xtr   Cpmin    Chinge    XCp    
 ------- -------- --------- --------- -------- ------- ------- -------- --------- ---------
  -5.000   0.0972   0.01771   0.01058  -0.1471  0.8216  0.0586  -2.2355   0.0000   0.0000   0.0000   1.8011
  -4.500   0.1509   0.01609   0.00890  -0.1472  0.8140  0.0710  -2.0154   0.0000   0.0000   0.0000   1.2472
  -4.000   0.2043   0.01521   0.00802  -0.1471  0.8050  0.0924  -1.7926   0.0000   0.0000   0.0000   0.9841
  -3.500   0.2616   0.01436   0.00724  -0.1475  0.7967  0.1341  -1.5555   0.0000   0.0000   0.0000   0.8234
  -3.000   0.3190   0.01393   0.00693  -0.1480  0.7888  0.2016  -1.3169   0.0000   0.0000   0.0000   0.7204
  -2.500   0.3730   0.01359   0.00682  -0.1480  0.7792  0.2741  -1.0937   0.0000   0.0000   0.0000   0.6513
  -2.000   0.4307   0.01316   0.00661  -0.1485  0.7707  0.3666  -0.8751   0.0000   0.0000   0.0000   0.5976
  -1.500   0.4881   0.01290   0.00658  -0.1488  0.7626  0.4699  -0.7973   0.0000   0.0000   0.0000   0.5563
  -1.000   0.5407   0.01259   0.00669  -0.1481  0.7517  0.5946  -0.8368   0.0000   0.0000   0.0000   0.5244
  -0.500   0.5952   0.01230   0.00662  -0.1471  0.7426  0.7135  -0.8805   0.0000   0.0000   0.0000   0.4967
   0.000   0.6437   0.01235   0.00683  -0.1450  0.7331  0.8007  -0.9202   0.0000   0.0000   0.0000   0.4739
   0.500   0.6894   0.01221   0.00677  -0.1421  0.7219  0.8676  -0.9592   0.0000   0.0000   0.0000   0.4540
   1.000   0.7380   0.01188   0.00639  -0.1393  0.7119  0.9627  -1.0071   0.0000   0.0000   0.0000   0.4360
   1.500   0.7995   0.01198   0.00644  -0.1410  0.6995  1.0000  -1.0646   0.0000   0.0000   0.0000   0.4229
   2.000   0.8618   0.01199   0.00625  -0.1423  0.6889  1.0000  -1.1253   0.0000   0.0000   0.0000   0.4110
   2.500   0.9174   0.01211   0.00634  -0.1424  0.6741  1.0000  -1.1894   0.0000   0.0000   0.0000   0.4005
   3.000   0.9775   0.01214   0.00619  -0.1431  0.6617  1.0000  -1.2603   0.0000   0.0000   0.0000   0.3910
   3.500   1.0309   0.01228   0.00636  -0.1428  0.6458  1.0000  -1.3263   0.0000   0.0000   0.0000   0.3824
   4.000   1.0869   0.01241   0.00641  -0.1428  0.6302  1.0000  -1.3976   0.0000   0.0000   0.0000   0.3746
   4.500   1.1418   0.01252   0.00643  -0.1426  0.6120  1.0000  -1.4806   0.0000   0.0000   0.0000   0.3674
   5.000   1.1932   0.01281   0.00675  -0.1419  0.5931  1.0000  -1.5617   0.0000   0.0000   0.0000   0.3608
   5.500   1.2448   0.01315   0.00708  -0.1413  0.5730  1.0000  -1.6587   0.0000   0.0000   0.0000   0.3547
   6.000   1.2943   0.01352   0.00741  -0.1402  0.5493  1.0000  -1.7606   0.0000   0.0000   0.0000   0.3488
   6.500   1.3423   0.01403   0.00788  -0.1390  0.5257  1.0000  -1.8852   0.0000   0.0000   0.0000   0.3432
   7.000   1.3873   0.01463   0.00844  -0.1373  0.4993  1.0000  -2.0088   0.0000   0.0000   0.0000   0.3379
   7.500   1.4291   0.01535   0.00913  -0.1351  0.4715  1.0000  -2.1595   0.0000   0.0000   0.0000   0.3327
   8.000   1.4675   0.01620   0.00994  -0.1324  0.4434  1.0000  -2.3081   0.0000   0.0000   0.0000   0.3276
   8.500   1.4994   0.01721   0.01090  -0.1288  0.4136  1.0000  -2.4608   0.0000   0.0000   0.0000   0.3224
   9.000   1.5264   0.01841   0.01206  -0.1245  0.3864  1.0000  -2.6562   0.0000   0.0000   0.0000   0.3173
   9.500   1.5483   0.01992   0.01352  -0.1197  0.3585  1.0000  -2.8870   0.0000   0.0000   0.0000   0.3122
  10.000   1.5659   0.02179   0.01537  -0.1150  0.3297  1.0000  -3.1270   0.0000   0.0000   0.0000   0.3074
  10.500   1.5837   0.02391   0.01749  -0.1108  0.3041  1.0000  -3.3725   0.0000   0.0000   0.0000   0.3031
  11.000   1.5991   0.02638   0.01997  -0.1068  0.2789  1.0000  -3.6150   0.0000   0.0000   0.0000   0.2989
  11.500   1.6107   0.02928   0.02288  -0.1028  0.2529  1.0000  -3.8539   0.0000   0.0000   0.0000   0.2950
  12.000   1.6194   0.03260   0.02623  -0.0991  0.2263  1.0000  -4.0887   0.0000   0.0000   0.0000   0.2914
  12.500   1.6250   0.03633   0.02997  -0.0956  0.2014  1.0000  -4.3143   0.0000   0.0000   0.0000   0.2880
  13.000   1.6278   0.04054   0.03419  -0.0923  0.1780  1.0000  -4.5303   0.0000   0.0000   0.0000   0.2848
  13.500   1.6276   0.04526   0.03892  -0.0893  0.1561  1.0000  -4.7349   0.0000   0.0000   0.0000   0.2819
  14.000   1.6237   0.05069   0.04434  -0.0867  0.1365  1.0000  -4.9227   0.0000   0.0000   0.0000   0.2794
  14.500   1.6198   0.05641   0.05011  -0.0846  0.1193  1.0000  -5.1096   0.0000   0.0000   0.0000   0.2771
  15.000   1.6178   0.06222   0.05605  -0.0831  0.1042  1.0000  -5.3041   0.0000   0.0000   0.0000   0.2751


