xflr5 v6.59

 Calculated polar for: revR_75_revT

 1 1 Reynolds number fixed          Mach number fixed         

 xtrf =   1.000 (top)        1.000 (bottom)
 Mach =   0.000     Re =     0.135 e 6     Ncrit =   9.000

  alpha     CL        CD       CDp       Cm    Top Xtr Bot Xtr   Cpmin    Chinge    XCp    
 ------- -------- --------- --------- -------- ------- ------- -------- --------- ---------
  -5.000  -0.0282   0.02673   0.01914  -0.1304  0.8787  0.0820  -2.2759   0.0000   0.0000   0.0000  -4.4965
  -4.500   0.0475   0.02379   0.01583  -0.1341  0.8736  0.0963  -2.0092   0.0000   0.0000   0.0000   3.1406
  -4.000   0.0858   0.02298   0.01492  -0.1316  0.8593  0.1153  -1.8413   0.0000   0.0000   0.0000   1.8162
  -3.500   0.1548   0.02160   0.01368  -0.1340  0.8519  0.1673  -1.5948   0.0000   0.0000   0.0000   1.1318
  -3.000   0.2075   0.02100   0.01333  -0.1340  0.8407  0.2441  -1.3837   0.0000   0.0000   0.0000   0.9060
  -2.500   0.2664   0.02035   0.01305  -0.1348  0.8299  0.3544  -1.1507   0.0000   0.0000   0.0000   0.7625
  -2.000   0.3319   0.01956   0.01267  -0.1359  0.8236  0.4901  -0.9197   0.0000   0.0000   0.0000   0.6634
  -1.500   0.3709   0.01975   0.01338  -0.1329  0.8078  0.6280  -0.7485   0.0000   0.0000   0.0000   0.6109
  -1.000   0.4231   0.01931   0.01319  -0.1297  0.8000  0.7618  -0.7279   0.0000   0.0000   0.0000   0.5579
  -0.500   0.4498   0.01975   0.01376  -0.1232  0.7838  0.8567  -0.7516   0.0000   0.0000   0.0000   0.5241
   0.000   0.5106   0.01890   0.01285  -0.1215  0.7758  0.9861  -0.7993   0.0000   0.0000   0.0000   0.4873
   0.500   0.5655   0.01954   0.01328  -0.1230  0.7605  1.0000  -0.8433   0.0000   0.0000   0.0000   0.4660
   1.000   0.6359   0.01908   0.01256  -0.1250  0.7514  1.0000  -0.9055   0.0000   0.0000   0.0000   0.4442
   1.500   0.6883   0.01954   0.01290  -0.1249  0.7354  1.0000  -0.9545   0.0000   0.0000   0.0000   0.4284
   2.000   0.7557   0.01911   0.01229  -0.1261  0.7262  1.0000  -1.0226   0.0000   0.0000   0.0000   0.4132
   2.500   0.8066   0.01950   0.01264  -0.1254  0.7092  1.0000  -1.0810   0.0000   0.0000   0.0000   0.4012
   3.000   0.8765   0.01879   0.01176  -0.1266  0.6995  1.0000  -1.1573   0.0000   0.0000   0.0000   0.3896
   3.500   0.9256   0.01908   0.01208  -0.1255  0.6806  1.0000  -1.2183   0.0000   0.0000   0.0000   0.3801
   4.000   0.9808   0.01915   0.01213  -0.1251  0.6642  1.0000  -1.2957   0.0000   0.0000   0.0000   0.3714
   4.500   1.0475   0.01848   0.01133  -0.1258  0.6501  1.0000  -1.3872   0.0000   0.0000   0.0000   0.3633
   5.000   1.0984   0.01855   0.01146  -0.1247  0.6293  1.0000  -1.4777   0.0000   0.0000   0.0000   0.3561
   5.500   1.1502   0.01873   0.01169  -0.1238  0.6088  1.0000  -1.5740   0.0000   0.0000   0.0000   0.3495
   6.000   1.2034   0.01876   0.01173  -0.1229  0.5860  1.0000  -1.6972   0.0000   0.0000   0.0000   0.3433
   6.500   1.2551   0.01891   0.01188  -0.1219  0.5614  1.0000  -1.8263   0.0000   0.0000   0.0000   0.3375
   7.000   1.3048   0.01923   0.01219  -0.1205  0.5350  1.0000  -1.9784   0.0000   0.0000   0.0000   0.3321
   7.500   1.3532   0.01965   0.01253  -0.1190  0.5061  1.0000  -2.1489   0.0000   0.0000   0.0000   0.3269
   8.000   1.3965   0.02040   0.01327  -0.1169  0.4762  1.0000  -2.3461   0.0000   0.0000   0.0000   0.3219
   8.500   1.4319   0.02128   0.01422  -0.1137  0.4428  1.0000  -2.5627   0.0000   0.0000   0.0000   0.3168
   9.000   1.4663   0.02233   0.01521  -0.1104  0.4107  1.0000  -2.8327   0.0000   0.0000   0.0000   0.3118
   9.500   1.4976   0.02362   0.01644  -0.1067  0.3798  1.0000  -3.1306   0.0000   0.0000   0.0000   0.3070
  10.000   1.5135   0.02515   0.01806  -0.1010  0.3482  1.0000  -3.3822   0.0000   0.0000   0.0000   0.3017
  10.500   1.5262   0.02704   0.01997  -0.0955  0.3174  1.0000  -3.6276   0.0000   0.0000   0.0000   0.2966
  11.000   1.5365   0.02939   0.02229  -0.0903  0.2882  1.0000  -3.8680   0.0000   0.0000   0.0000   0.2919
  11.500   1.5438   0.03224   0.02505  -0.0855  0.2594  1.0000  -4.0991   0.0000   0.0000   0.0000   0.2876
  12.000   1.5447   0.03572   0.02869  -0.0809  0.2304  1.0000  -4.3045   0.0000   0.0000   0.0000   0.2837
  12.500   1.5429   0.03980   0.03281  -0.0769  0.2024  1.0000  -4.4988   0.0000   0.0000   0.0000   0.2801
  13.000   1.5391   0.04441   0.03745  -0.0733  0.1769  1.0000  -4.6824   0.0000   0.0000   0.0000   0.2769
  13.500   1.5334   0.04955   0.04261  -0.0703  0.1542  1.0000  -4.8538   0.0000   0.0000   0.0000   0.2741
  14.000   1.5263   0.05519   0.04830  -0.0677  0.1340  1.0000  -5.0200   0.0000   0.0000   0.0000   0.2716
  14.500   1.5183   0.06132   0.05445  -0.0657  0.1165  1.0000  -5.1775   0.0000   0.0000   0.0000   0.2694
  15.000   1.5106   0.06760   0.06066  -0.0639  0.1006  1.0000  -5.3296   0.0000   0.0000   0.0000   0.2674


