xflr5 v6.59

 Calculated polar for: revR_70_revT

 1 1 Reynolds number fixed          Mach number fixed         

 xtrf =   1.000 (top)        1.000 (bottom)
 Mach =   0.000     Re =     0.355 e 6     Ncrit =   9.000

  alpha     CL        CD       CDp       Cm    Top Xtr Bot Xtr   Cpmin    Chinge    XCp    
 ------- -------- --------- --------- -------- ------- ------- -------- --------- ---------
  -5.000   0.0172   0.01354   0.00684  -0.1275  0.8132  0.0510  -2.3165   0.0000   0.0000   0.0000   7.8303
  -4.500   0.0723   0.01241   0.00560  -0.1275  0.8049  0.0643  -2.0353   0.0000   0.0000   0.0000   2.0509
  -4.000   0.1282   0.01182   0.00499  -0.1277  0.7962  0.0901  -1.7810   0.0000   0.0000   0.0000   1.2643
  -3.500   0.1837   0.01122   0.00452  -0.1278  0.7865  0.1372  -1.5316   0.0000   0.0000   0.0000   0.9567
  -3.000   0.2404   0.01077   0.00421  -0.1281  0.7781  0.2022  -1.2869   0.0000   0.0000   0.0000   0.7899
  -2.500   0.2963   0.01042   0.00409  -0.1284  0.7690  0.2815  -1.0559   0.0000   0.0000   0.0000   0.6877
  -2.000   0.3527   0.01006   0.00392  -0.1286  0.7591  0.3666  -0.8342   0.0000   0.0000   0.0000   0.6173
  -1.500   0.4091   0.00970   0.00384  -0.1287  0.7491  0.4872  -0.7213   0.0000   0.0000   0.0000   0.5660
  -1.000   0.4636   0.00936   0.00388  -0.1285  0.7392  0.6021  -0.7618   0.0000   0.0000   0.0000   0.5273
  -0.500   0.5177   0.00916   0.00392  -0.1276  0.7292  0.7161  -0.8035   0.0000   0.0000   0.0000   0.4959
   0.000   0.5703   0.00913   0.00400  -0.1265  0.7175  0.7850  -0.8465   0.0000   0.0000   0.0000   0.4704
   0.500   0.6224   0.00907   0.00398  -0.1251  0.7063  0.8359  -0.8945   0.0000   0.0000   0.0000   0.4490
   1.000   0.6701   0.00903   0.00401  -0.1228  0.6942  0.8894  -0.9420   0.0000   0.0000   0.0000   0.4305
   1.500   0.7184   0.00887   0.00385  -0.1206  0.6810  0.9491  -0.9918   0.0000   0.0000   0.0000   0.4144
   2.000   0.7838   0.00887   0.00380  -0.1227  0.6658  1.0000  -1.0599   0.0000   0.0000   0.0000   0.4026
   2.500   0.8425   0.00903   0.00380  -0.1234  0.6515  1.0000  -1.1244   0.0000   0.0000   0.0000   0.3919
   3.000   0.8984   0.00914   0.00386  -0.1236  0.6330  1.0000  -1.1880   0.0000   0.0000   0.0000   0.3824
   3.500   0.9539   0.00933   0.00401  -0.1236  0.6144  1.0000  -1.2630   0.0000   0.0000   0.0000   0.3738
   4.000   1.0088   0.00959   0.00420  -0.1235  0.5955  1.0000  -1.3392   0.0000   0.0000   0.0000   0.3661
   4.500   1.0621   0.00988   0.00442  -0.1232  0.5724  1.0000  -1.4267   0.0000   0.0000   0.0000   0.3590
   5.000   1.1144   0.01025   0.00472  -0.1227  0.5482  1.0000  -1.5206   0.0000   0.0000   0.0000   0.3524
   5.500   1.1655   0.01068   0.00510  -0.1220  0.5225  1.0000  -1.6346   0.0000   0.0000   0.0000   0.3464
   6.000   1.2145   0.01120   0.00554  -0.1209  0.4932  1.0000  -1.7557   0.0000   0.0000   0.0000   0.3406
   6.500   1.2623   0.01181   0.00608  -0.1198  0.4647  1.0000  -1.8977   0.0000   0.0000   0.0000   0.3353
   7.000   1.3067   0.01255   0.00670  -0.1181  0.4311  1.0000  -2.0568   0.0000   0.0000   0.0000   0.3300
   7.500   1.3510   0.01329   0.00743  -0.1164  0.4018  1.0000  -2.2424   0.0000   0.0000   0.0000   0.3251
   8.000   1.3908   0.01421   0.00826  -0.1141  0.3686  1.0000  -2.4588   0.0000   0.0000   0.0000   0.3202
   8.500   1.4251   0.01531   0.00924  -0.1110  0.3343  1.0000  -2.7153   0.0000   0.0000   0.0000   0.3153
   9.000   1.4574   0.01642   0.01032  -0.1076  0.3054  1.0000  -3.0203   0.0000   0.0000   0.0000   0.3105
   9.500   1.4839   0.01786   0.01171  -0.1037  0.2732  1.0000  -3.3154   0.0000   0.0000   0.0000   0.3057
  10.000   1.5041   0.01978   0.01350  -0.0994  0.2406  1.0000  -3.5952   0.0000   0.0000   0.0000   0.3011
  10.500   1.5272   0.02172   0.01541  -0.0959  0.2117  1.0000  -3.8926   0.0000   0.0000   0.0000   0.2969
  11.000   1.5450   0.02416   0.01779  -0.0923  0.1816  1.0000  -4.1759   0.0000   0.0000   0.0000   0.2930
  11.500   1.5579   0.02714   0.02067  -0.0886  0.1533  1.0000  -4.4435   0.0000   0.0000   0.0000   0.2892
  12.000   1.5670   0.03057   0.02406  -0.0851  0.1270  1.0000  -4.6989   0.0000   0.0000   0.0000   0.2857
  12.500   1.5750   0.03428   0.02774  -0.0819  0.1050  1.0000  -4.9518   0.0000   0.0000   0.0000   0.2824
  13.000   1.5793   0.03845   0.03190  -0.0789  0.0864  1.0000  -5.1897   0.0000   0.0000   0.0000   0.2793
  13.500   1.5844   0.04275   0.03625  -0.0763  0.0728  1.0000  -5.4359   0.0000   0.0000   0.0000   0.2766
  14.000   1.5869   0.04756   0.04118  -0.0741  0.0615  1.0000  -5.6724   0.0000   0.0000   0.0000   0.2740
  14.500   1.5784   0.05387   0.04752  -0.0721  0.0506  1.0000  -5.8491   0.0000   0.0000   0.0000   0.2720
  15.000   1.5797   0.05939   0.05323  -0.0709  0.0444  1.0000  -6.0755   0.0000   0.0000   0.0000   0.2701


