xflr5 v6.59

 Calculated polar for: revR_80_revT

 1 1 Reynolds number fixed          Mach number fixed         

 xtrf =   1.000 (top)        1.000 (bottom)
 Mach =   0.000     Re =     0.075 e 6     Ncrit =   9.000

  alpha     CL        CD       CDp       Cm    Top Xtr Bot Xtr   Cpmin    Chinge    XCp    
 ------- -------- --------- --------- -------- ------- ------- -------- --------- ---------
  -5.000  -0.3317   0.08059   0.07604  -0.0478  0.9414  0.2319  -1.6130   0.0000   0.0000   0.0000   0.0973
  -4.500  -0.3032   0.07397   0.06933  -0.0544  0.9299  0.2568  -1.5775   0.0000   0.0000   0.0000   0.0621
  -4.000  -0.1290   0.04059   0.03238  -0.1060  0.9250  0.1209  -2.1182   0.0000   0.0000   0.0000  -0.5954
  -3.500  -0.0681   0.03763   0.02889  -0.1090  0.9125  0.1360  -1.9480   0.0000   0.0000   0.0000  -1.3918
  -3.000   0.0133   0.03597   0.02679  -0.1145  0.9017  0.1727  -1.7402   0.0000   0.0000   0.0000   9.0665
  -2.500   0.0739   0.03494   0.02593  -0.1166  0.8883  0.2321  -1.5520   0.0000   0.0000   0.0000   1.8573
  -2.000   0.1466   0.03440   0.02578  -0.1205  0.8766  0.3532  -1.3226   0.0000   0.0000   0.0000   1.0841
  -1.500   0.1984   0.03441   0.02647  -0.1206  0.8619  0.4988  -1.1261   0.0000   0.0000   0.0000   0.8653
  -1.000   0.2580   0.03442   0.02725  -0.1193  0.8494  0.7145  -0.9106   0.0000   0.0000   0.0000   0.7164
  -0.500   0.2574   0.03470   0.02792  -0.1074  0.8315  0.9027  -0.8184   0.0000   0.0000   0.0000   0.6703
   0.000   0.3310   0.03575   0.02840  -0.1126  0.8163  1.0000  -0.6519   0.0000   0.0000   0.0000   0.5913
   0.500   0.3994   0.03682   0.02903  -0.1160  0.8000  1.0000  -0.7016   0.0000   0.0000   0.0000   0.5401
   1.000   0.4415   0.03859   0.03053  -0.1159  0.7810  1.0000  -0.7330   0.0000   0.0000   0.0000   0.5111
   1.500   0.5020   0.03985   0.03154  -0.1175  0.7643  1.0000  -0.7829   0.0000   0.0000   0.0000   0.4816
   2.000   0.5726   0.04051   0.03198  -0.1197  0.7490  1.0000  -0.8428   0.0000   0.0000   0.0000   0.4559
   3.500   0.7401   0.04343   0.03463  -0.1204  0.6975  1.0000  -1.0163   0.0000   0.0000   0.0000   0.4073
   4.000   0.7735   0.04531   0.03651  -0.1184  0.6751  1.0000  -1.0564   0.0000   0.0000   0.0000   0.3971
   5.000   0.9111   0.04436   0.03562  -0.1188  0.6470  1.0000  -1.2320   0.0000   0.0000   0.0000   0.3731
   7.000   1.1266   0.04305   0.03478  -0.1123  0.5749  1.0000  -1.6267   0.0000   0.0000   0.0000   0.3396
   7.500   1.1678   0.04339   0.03528  -0.1095  0.5526  1.0000  -1.7411   0.0000   0.0000   0.0000   0.3330
   8.000   1.2198   0.04275   0.03481  -0.1073  0.5314  1.0000  -1.8867   0.0000   0.0000   0.0000   0.3264
   8.500   1.3026   0.03978   0.03204  -0.1073  0.5117  1.0000  -2.1182   0.0000   0.0000   0.0000   0.3200
   9.000   1.3890   0.03698   0.02936  -0.1081  0.4862  1.0000  -2.4166   0.0000   0.0000   0.0000   0.3147
   9.500   1.4567   0.03571   0.02814  -0.1076  0.4561  1.0000  -2.7381   0.0000   0.0000   0.0000   0.3098
  10.000   1.5178   0.03526   0.02758  -0.1068  0.4231  1.0000  -3.1327   0.0000   0.0000   0.0000   0.3054
  10.500   1.5317   0.03708   0.02957  -0.1009  0.3916  1.0000  -3.3666   0.0000   0.0000   0.0000   0.3000
  11.000   1.5537   0.03852   0.03102  -0.0960  0.3590  1.0000  -3.6381   0.0000   0.0000   0.0000   0.2950
  11.500   1.5832   0.03987   0.03223  -0.0921  0.3249  1.0000  -3.9467   0.0000   0.0000   0.0000   0.2905
  12.000   1.5775   0.04298   0.03549  -0.0854  0.2961  1.0000  -4.1165   0.0000   0.0000   0.0000   0.2855
  12.500   1.5730   0.04648   0.03908  -0.0797  0.2674  1.0000  -4.2897   0.0000   0.0000   0.0000   0.2810
  13.000   1.5701   0.05035   0.04298  -0.0748  0.2396  1.0000  -4.4666   0.0000   0.0000   0.0000   0.2770
  13.500   1.5657   0.05472   0.04739  -0.0705  0.2139  1.0000  -4.6358   0.0000   0.0000   0.0000   0.2734
  14.000   1.5556   0.05985   0.05258  -0.0667  0.1908  1.0000  -4.7807   0.0000   0.0000   0.0000   0.2702
  15.000   1.5322   0.07195   0.06499  -0.0610  0.1526  1.0000  -5.0274   0.0000   0.0000   0.0000   0.2651


